<?xml version="1.0" encoding="UTF-8"?>

<!--
    Digital Twin of Geneva Motorway (DT-GM) in SUMO
    Author: Krešimir Kušić

    This program is free software: you can redistribute it and/or modify
    it under the terms of the GNU General Public License as published by
    the Free Software Foundation, either version 3 of the License, or
    (at your option) any later version.

    This program is distributed in the hope that it will be useful,
    but WITHOUT ANY WARRANTY; without even the implied warranty of
    MERCHANTABILITY or FITNESS FOR A PARTICULAR PURPOSE.  See the
    GNU General Public License for more details.

    You should have received a copy of the GNU General Public License
    along with this program. If not, see <http://www.gnu.org/licenses/>.
-->

<routes xmlns:xsi="http://www.w3.org/2001/XMLSchema-instance" xsi:noNamespaceSchemaLocation="http://sumo.dlr.de/xsd/routes_file.xsd">

	<flow id="flow_car1_E_NS" type="vtype_car1" begin="0.00" end="86400.00" from="E_NS1" to="E_NS7" departPos="free" departSpeed="max" probability="0.20"/>
	<flow id="flow_truck1_E_NS" type="vtype_truck1" begin="0.00" end="86400.00" from="E_NS1" to="E_NS7" departPos="free" departSpeed="max" probability="0.10"/>

	<flow id="flow_car1_S_NE1" type="vtype_car1" begin="0.00" end="86400.00" from="S_NE1" via="S_NE2 S_NE6 S_NE8" to="S_NE13" departPos="free" departSpeed="max" probability="0.07"/>
	<flow id="flow_truck1_S_NE1" type="vtype_truck1" begin="0.00" end="86400.00" from="S_NE1" via="S_NE2 S_NE6 S_NE8" to="S_NE13" departPos="free" departSpeed="max" probability="0.03"/>
	
	<flow id="flow_car1_S_NE2" type="vtype_car1" begin="0.00" end="86400.00" from="S_NE1" via="S_NE3 S_NE6 S_NE9" to="S_NE13" departPos="free" departSpeed="max" probability="0.07"/>
	<flow id="flow_truck1_S_NE2" type="vtype_truck1" begin="0.00" end="86400.00" from="S_NE1" via="S_NE3 S_NE6 S_NE9" to="S_NE13" departPos="free" departSpeed="max" probability="0.03"/>
	
	<flow id="flow_car1_S_NE3" type="vtype_car1" begin="0.00" end="86400.00" from="S_NE1" via="S_NE4 S_NE7" to="S_NE13" departPos="free" departSpeed="max" probability="0.07"/>
	<flow id="flow_truck1_S_NE3" type="vtype_truck1" begin="0.00" end="86400.00" from="S_NE1" via="S_NE4 S_NE7" to="S_NE13" departPos="free" departSpeed="max" probability="0.03"/>

	<flow id="flow_car1_temporary_N_S" type="vtype_car1" begin="0.00" end="86400.00" from="N_ES146" to="N_ES149" departPos="free" departSpeed="max" probability="0.20"/>
	<flow id="flow_truck1_temporary_N_S" type="vtype_truck1" begin="0.00" end="86400.00" from="N_ES146" to="N_ES149" departPos="free" departSpeed="max" probability="0.10"/>
	
	<flow id="flow_car1_onramp1_N_ES" type="vtype_car1" begin="0.00" end="86400.00" from="N_ES152_onramp1.302" to="N_ES159" departPos="free" departSpeed="max" probability="0.20"/>
	<flow id="flow_truck1_onramp1_N_ES" type="vtype_truck1" begin="0.00" end="86400.00" from="N_ES152_onramp1.302" to="N_ES159" departPos="free" departSpeed="max" probability="0.10"/>
	
	<flow id="flow_car1_onramp1_ES_N" type="vtype_car1" begin="0.00" end="86400.00" from="ES_N56_onramp1.299" to="ES_N18" departPos="free" departSpeed="max" probability="0.20"/>
	<flow id="flow_truck1_onramp1_ES_N" type="vtype_truck1" begin="0.00" end="86400.00" from="ES_N56_onramp1.299" to="ES_N18" departPos="free" departSpeed="max" probability="0.10"/>

	<flow id="flow_car1_onramp_x15_E" type="vtype_car1" begin="0.00" end="86400.00" from="E12" to="SN_E9" departPos="free" departSpeed="max" probability="0.20"/>
	<flow id="flow_truck1_onramp_x15_E" type="vtype_truck1" begin="0.00" end="86400.00" from="E12" to="SN_E9" departPos="free" departSpeed="max" probability="0.10"/>

</routes>