<?xml version="1.0" encoding="UTF-8"?>

<!--
    Digital Twin of Geneva Motorway (DT-GM) in SUMO
    Author: Krešimir Kušić

    This program is free software: you can redistribute it and/or modify
    it under the terms of the GNU General Public License as published by
    the Free Software Foundation, either version 3 of the License, or
    (at your option) any later version.

    This program is distributed in the hope that it will be useful,
    but WITHOUT ANY WARRANTY; without even the implied warranty of
    MERCHANTABILITY or FITNESS FOR A PARTICULAR PURPOSE.  See the
    GNU General Public License for more details.

    You should have received a copy of the GNU General Public License
    along with this program. If not, see <http://www.gnu.org/licenses/>.
-->

<additional xmlns:xsi="http://www.w3.org/2001/XMLSchema-instance" xsi:noNamespaceSchemaLocation="http://sumo.dlr.de/xsd/additional_file.xsd">
	
	<route id="route_cali_S_NE11" edges="S_NE11 S_NE12 S_NE13" color="red"/>

	<calibrator id="caliCar1_S_NE11_0" vTypes="vtype_car1" edge="S_NE11" pos="0" jamThreshold="0.5">


		<flow begin="0" end="60" route="route_cali_S_NE11" vehsPerHour="180" speed="27.78" type="vtype_car1" departPos="random_free" departSpeed="max"/>
		<flow begin="60" end="120" route="route_cali_S_NE11" vehsPerHour="180" speed="27.78" type="vtype_car1" departPos="random_free" departSpeed="max"/>
		<flow begin="120" end="180" route="route_cali_S_NE11" vehsPerHour="180" speed="27.78" type="vtype_car1" departPos="random_free" departSpeed="max"/>
		<flow begin="180" end="240" route="route_cali_S_NE11" vehsPerHour="180" speed="27.78" type="vtype_car1" departPos="random_free" departSpeed="max"/>
		<flow begin="240" end="300" route="route_cali_S_NE11" vehsPerHour="180" speed="27.78" type="vtype_car1" departPos="random_free" departSpeed="max"/>
		<flow begin="300" end="360" route="route_cali_S_NE11" vehsPerHour="180" speed="27.78" type="vtype_car1" departPos="random_free" departSpeed="max"/>
		<flow begin="360" end="420" route="route_cali_S_NE11" vehsPerHour="180" speed="27.78" type="vtype_car1" departPos="random_free" departSpeed="max"/>
		<flow begin="420" end="480" route="route_cali_S_NE11" vehsPerHour="180" speed="27.78" type="vtype_car1" departPos="random_free" departSpeed="max"/>
		<flow begin="480" end="540" route="route_cali_S_NE11" vehsPerHour="180" speed="27.78" type="vtype_car1" departPos="random_free" departSpeed="max"/>
		<flow begin="540" end="600" route="route_cali_S_NE11" vehsPerHour="180" speed="27.78" type="vtype_car1" departPos="random_free" departSpeed="max"/>
		<flow begin="600" end="660" route="route_cali_S_NE11" vehsPerHour="180" speed="27.78" type="vtype_car1" departPos="random_free" departSpeed="max"/>
		<flow begin="660" end="720" route="route_cali_S_NE11" vehsPerHour="180" speed="27.78" type="vtype_car1" departPos="random_free" departSpeed="max"/>
		<flow begin="720" end="780" route="route_cali_S_NE11" vehsPerHour="180" speed="27.78" type="vtype_car1" departPos="random_free" departSpeed="max"/>
		<flow begin="780" end="840" route="route_cali_S_NE11" vehsPerHour="180" speed="27.78" type="vtype_car1" departPos="random_free" departSpeed="max"/>
		<flow begin="840" end="900" route="route_cali_S_NE11" vehsPerHour="180" speed="27.78" type="vtype_car1" departPos="random_free" departSpeed="max"/>
		<flow begin="900" end="960" route="route_cali_S_NE11" vehsPerHour="180" speed="27.78" type="vtype_car1" departPos="random_free" departSpeed="max"/>
		<flow begin="960" end="1020" route="route_cali_S_NE11" vehsPerHour="180" speed="27.78" type="vtype_car1" departPos="random_free" departSpeed="max"/>
		<flow begin="1020" end="1080" route="route_cali_S_NE11" vehsPerHour="180" speed="27.78" type="vtype_car1" departPos="random_free" departSpeed="max"/>
		<flow begin="1080" end="1140" route="route_cali_S_NE11" vehsPerHour="180" speed="27.78" type="vtype_car1" departPos="random_free" departSpeed="max"/>
		<flow begin="1140" end="1200" route="route_cali_S_NE11" vehsPerHour="180" speed="27.78" type="vtype_car1" departPos="random_free" departSpeed="max"/>
		<flow begin="1200" end="1260" route="route_cali_S_NE11" vehsPerHour="180" speed="27.78" type="vtype_car1" departPos="random_free" departSpeed="max"/>
		<flow begin="1260" end="1320" route="route_cali_S_NE11" vehsPerHour="180" speed="27.78" type="vtype_car1" departPos="random_free" departSpeed="max"/>
		<flow begin="1320" end="1380" route="route_cali_S_NE11" vehsPerHour="180" speed="27.78" type="vtype_car1" departPos="random_free" departSpeed="max"/>
		<flow begin="1380" end="1440" route="route_cali_S_NE11" vehsPerHour="180" speed="27.78" type="vtype_car1" departPos="random_free" departSpeed="max"/>
		<flow begin="1440" end="1500" route="route_cali_S_NE11" vehsPerHour="180" speed="27.78" type="vtype_car1" departPos="random_free" departSpeed="max"/>
		<flow begin="1500" end="1560" route="route_cali_S_NE11" vehsPerHour="180" speed="27.78" type="vtype_car1" departPos="random_free" departSpeed="max"/>
		<flow begin="1560" end="1620" route="route_cali_S_NE11" vehsPerHour="180" speed="27.78" type="vtype_car1" departPos="random_free" departSpeed="max"/>
		<flow begin="1620" end="1680" route="route_cali_S_NE11" vehsPerHour="180" speed="27.78" type="vtype_car1" departPos="random_free" departSpeed="max"/>
		<flow begin="1680" end="1740" route="route_cali_S_NE11" vehsPerHour="180" speed="27.78" type="vtype_car1" departPos="random_free" departSpeed="max"/>
		<flow begin="1740" end="1800" route="route_cali_S_NE11" vehsPerHour="180" speed="27.78" type="vtype_car1" departPos="random_free" departSpeed="max"/>
		<flow begin="1800" end="1860" route="route_cali_S_NE11" vehsPerHour="180" speed="27.78" type="vtype_car1" departPos="random_free" departSpeed="max"/>
		<flow begin="1860" end="1920" route="route_cali_S_NE11" vehsPerHour="180" speed="27.78" type="vtype_car1" departPos="random_free" departSpeed="max"/>
		<flow begin="1920" end="1980" route="route_cali_S_NE11" vehsPerHour="180" speed="27.78" type="vtype_car1" departPos="random_free" departSpeed="max"/>
		<flow begin="1980" end="2040" route="route_cali_S_NE11" vehsPerHour="180" speed="27.78" type="vtype_car1" departPos="random_free" departSpeed="max"/>
		<flow begin="2040" end="2100" route="route_cali_S_NE11" vehsPerHour="180" speed="27.78" type="vtype_car1" departPos="random_free" departSpeed="max"/>
		<flow begin="2100" end="2160" route="route_cali_S_NE11" vehsPerHour="180" speed="27.78" type="vtype_car1" departPos="random_free" departSpeed="max"/>
		<flow begin="2160" end="2220" route="route_cali_S_NE11" vehsPerHour="180" speed="27.78" type="vtype_car1" departPos="random_free" departSpeed="max"/>
		<flow begin="2220" end="2280" route="route_cali_S_NE11" vehsPerHour="180" speed="27.78" type="vtype_car1" departPos="random_free" departSpeed="max"/>
		<flow begin="2280" end="2340" route="route_cali_S_NE11" vehsPerHour="180" speed="27.78" type="vtype_car1" departPos="random_free" departSpeed="max"/>
		<flow begin="2340" end="2400" route="route_cali_S_NE11" vehsPerHour="180" speed="27.78" type="vtype_car1" departPos="random_free" departSpeed="max"/>
		<flow begin="2400" end="2460" route="route_cali_S_NE11" vehsPerHour="180" speed="27.78" type="vtype_car1" departPos="random_free" departSpeed="max"/>
		<flow begin="2460" end="2520" route="route_cali_S_NE11" vehsPerHour="180" speed="27.78" type="vtype_car1" departPos="random_free" departSpeed="max"/>
		<flow begin="2520" end="2580" route="route_cali_S_NE11" vehsPerHour="180" speed="27.78" type="vtype_car1" departPos="random_free" departSpeed="max"/>
		<flow begin="2580" end="2640" route="route_cali_S_NE11" vehsPerHour="180" speed="27.78" type="vtype_car1" departPos="random_free" departSpeed="max"/>
		<flow begin="2640" end="2700" route="route_cali_S_NE11" vehsPerHour="180" speed="27.78" type="vtype_car1" departPos="random_free" departSpeed="max"/>
		<flow begin="2700" end="2760" route="route_cali_S_NE11" vehsPerHour="180" speed="27.78" type="vtype_car1" departPos="random_free" departSpeed="max"/>
		<flow begin="2760" end="2820" route="route_cali_S_NE11" vehsPerHour="180" speed="27.78" type="vtype_car1" departPos="random_free" departSpeed="max"/>
		<flow begin="2820" end="2880" route="route_cali_S_NE11" vehsPerHour="180" speed="27.78" type="vtype_car1" departPos="random_free" departSpeed="max"/>
		<flow begin="2880" end="2940" route="route_cali_S_NE11" vehsPerHour="180" speed="27.78" type="vtype_car1" departPos="random_free" departSpeed="max"/>
		<flow begin="2940" end="3000" route="route_cali_S_NE11" vehsPerHour="180" speed="27.78" type="vtype_car1" departPos="random_free" departSpeed="max"/>
		<flow begin="3000" end="3060" route="route_cali_S_NE11" vehsPerHour="180" speed="27.78" type="vtype_car1" departPos="random_free" departSpeed="max"/>
		<flow begin="3060" end="3120" route="route_cali_S_NE11" vehsPerHour="180" speed="27.78" type="vtype_car1" departPos="random_free" departSpeed="max"/>
		<flow begin="3120" end="3180" route="route_cali_S_NE11" vehsPerHour="180" speed="27.78" type="vtype_car1" departPos="random_free" departSpeed="max"/>
		<flow begin="3180" end="3240" route="route_cali_S_NE11" vehsPerHour="180" speed="27.78" type="vtype_car1" departPos="random_free" departSpeed="max"/>
		<flow begin="3240" end="3300" route="route_cali_S_NE11" vehsPerHour="180" speed="27.78" type="vtype_car1" departPos="random_free" departSpeed="max"/>
		<flow begin="3300" end="3360" route="route_cali_S_NE11" vehsPerHour="180" speed="27.78" type="vtype_car1" departPos="random_free" departSpeed="max"/>
		<flow begin="3360" end="3420" route="route_cali_S_NE11" vehsPerHour="180" speed="27.78" type="vtype_car1" departPos="random_free" departSpeed="max"/>
		<flow begin="3420" end="3480" route="route_cali_S_NE11" vehsPerHour="180" speed="27.78" type="vtype_car1" departPos="random_free" departSpeed="max"/>
		<flow begin="3480" end="3540" route="route_cali_S_NE11" vehsPerHour="180" speed="27.78" type="vtype_car1" departPos="random_free" departSpeed="max"/>
		<flow begin="3540" end="3600" route="route_cali_S_NE11" vehsPerHour="180" speed="27.78" type="vtype_car1" departPos="random_free" departSpeed="max"/>
		<flow begin="3600" end="3660" route="route_cali_S_NE11" vehsPerHour="180" speed="27.78" type="vtype_car1" departPos="random_free" departSpeed="max"/>
		<flow begin="3660" end="3720" route="route_cali_S_NE11" vehsPerHour="180" speed="27.78" type="vtype_car1" departPos="random_free" departSpeed="max"/>
		<flow begin="3720" end="3780" route="route_cali_S_NE11" vehsPerHour="180" speed="27.78" type="vtype_car1" departPos="random_free" departSpeed="max"/>
		<flow begin="3780" end="3840" route="route_cali_S_NE11" vehsPerHour="180" speed="27.78" type="vtype_car1" departPos="random_free" departSpeed="max"/>
		<flow begin="3840" end="3900" route="route_cali_S_NE11" vehsPerHour="180" speed="27.78" type="vtype_car1" departPos="random_free" departSpeed="max"/>
		<flow begin="3900" end="3960" route="route_cali_S_NE11" vehsPerHour="180" speed="27.78" type="vtype_car1" departPos="random_free" departSpeed="max"/>
		<flow begin="3960" end="4020" route="route_cali_S_NE11" vehsPerHour="180" speed="27.78" type="vtype_car1" departPos="random_free" departSpeed="max"/>
		<flow begin="4020" end="4080" route="route_cali_S_NE11" vehsPerHour="180" speed="27.78" type="vtype_car1" departPos="random_free" departSpeed="max"/>
		<flow begin="4080" end="4140" route="route_cali_S_NE11" vehsPerHour="180" speed="27.78" type="vtype_car1" departPos="random_free" departSpeed="max"/>
		<flow begin="4140" end="4200" route="route_cali_S_NE11" vehsPerHour="180" speed="27.78" type="vtype_car1" departPos="random_free" departSpeed="max"/>
		<flow begin="4200" end="4260" route="route_cali_S_NE11" vehsPerHour="180" speed="27.78" type="vtype_car1" departPos="random_free" departSpeed="max"/>
		<flow begin="4260" end="4320" route="route_cali_S_NE11" vehsPerHour="180" speed="27.78" type="vtype_car1" departPos="random_free" departSpeed="max"/>
		<flow begin="4320" end="4380" route="route_cali_S_NE11" vehsPerHour="180" speed="27.78" type="vtype_car1" departPos="random_free" departSpeed="max"/>
		<flow begin="4380" end="4440" route="route_cali_S_NE11" vehsPerHour="180" speed="27.78" type="vtype_car1" departPos="random_free" departSpeed="max"/>
		<flow begin="4440" end="4500" route="route_cali_S_NE11" vehsPerHour="180" speed="27.78" type="vtype_car1" departPos="random_free" departSpeed="max"/>
		<flow begin="4500" end="4560" route="route_cali_S_NE11" vehsPerHour="180" speed="27.78" type="vtype_car1" departPos="random_free" departSpeed="max"/>
		<flow begin="4560" end="4620" route="route_cali_S_NE11" vehsPerHour="180" speed="27.78" type="vtype_car1" departPos="random_free" departSpeed="max"/>
		<flow begin="4620" end="4680" route="route_cali_S_NE11" vehsPerHour="180" speed="27.78" type="vtype_car1" departPos="random_free" departSpeed="max"/>
		<flow begin="4680" end="4740" route="route_cali_S_NE11" vehsPerHour="180" speed="27.78" type="vtype_car1" departPos="random_free" departSpeed="max"/>
		<flow begin="4740" end="4800" route="route_cali_S_NE11" vehsPerHour="180" speed="27.78" type="vtype_car1" departPos="random_free" departSpeed="max"/>
		<flow begin="4800" end="4860" route="route_cali_S_NE11" vehsPerHour="180" speed="27.78" type="vtype_car1" departPos="random_free" departSpeed="max"/>
		<flow begin="4860" end="4920" route="route_cali_S_NE11" vehsPerHour="180" speed="27.78" type="vtype_car1" departPos="random_free" departSpeed="max"/>
		<flow begin="4920" end="4980" route="route_cali_S_NE11" vehsPerHour="180" speed="27.78" type="vtype_car1" departPos="random_free" departSpeed="max"/>
		<flow begin="4980" end="5040" route="route_cali_S_NE11" vehsPerHour="180" speed="27.78" type="vtype_car1" departPos="random_free" departSpeed="max"/>
		<flow begin="5040" end="5100" route="route_cali_S_NE11" vehsPerHour="180" speed="27.78" type="vtype_car1" departPos="random_free" departSpeed="max"/>
		<flow begin="5100" end="5160" route="route_cali_S_NE11" vehsPerHour="180" speed="27.78" type="vtype_car1" departPos="random_free" departSpeed="max"/>
		<flow begin="5160" end="5220" route="route_cali_S_NE11" vehsPerHour="180" speed="27.78" type="vtype_car1" departPos="random_free" departSpeed="max"/>
		<flow begin="5220" end="5280" route="route_cali_S_NE11" vehsPerHour="180" speed="27.78" type="vtype_car1" departPos="random_free" departSpeed="max"/>
		<flow begin="5280" end="5340" route="route_cali_S_NE11" vehsPerHour="180" speed="27.78" type="vtype_car1" departPos="random_free" departSpeed="max"/>
		<flow begin="5340" end="5400" route="route_cali_S_NE11" vehsPerHour="180" speed="27.78" type="vtype_car1" departPos="random_free" departSpeed="max"/>
		<flow begin="5400" end="5460" route="route_cali_S_NE11" vehsPerHour="180" speed="27.78" type="vtype_car1" departPos="random_free" departSpeed="max"/>
		<flow begin="5460" end="5520" route="route_cali_S_NE11" vehsPerHour="180" speed="27.78" type="vtype_car1" departPos="random_free" departSpeed="max"/>
		<flow begin="5520" end="5580" route="route_cali_S_NE11" vehsPerHour="180" speed="27.78" type="vtype_car1" departPos="random_free" departSpeed="max"/>
		<flow begin="5580" end="5640" route="route_cali_S_NE11" vehsPerHour="180" speed="27.78" type="vtype_car1" departPos="random_free" departSpeed="max"/>
		<flow begin="5640" end="5700" route="route_cali_S_NE11" vehsPerHour="180" speed="27.78" type="vtype_car1" departPos="random_free" departSpeed="max"/>
		<flow begin="5700" end="5760" route="route_cali_S_NE11" vehsPerHour="180" speed="27.78" type="vtype_car1" departPos="random_free" departSpeed="max"/>
		<flow begin="5760" end="5820" route="route_cali_S_NE11" vehsPerHour="180" speed="27.78" type="vtype_car1" departPos="random_free" departSpeed="max"/>
		<flow begin="5820" end="5880" route="route_cali_S_NE11" vehsPerHour="180" speed="27.78" type="vtype_car1" departPos="random_free" departSpeed="max"/>
		<flow begin="5880" end="5940" route="route_cali_S_NE11" vehsPerHour="180" speed="27.78" type="vtype_car1" departPos="random_free" departSpeed="max"/>
		<flow begin="5940" end="6000" route="route_cali_S_NE11" vehsPerHour="180" speed="27.78" type="vtype_car1" departPos="random_free" departSpeed="max"/>
		<flow begin="6000" end="6060" route="route_cali_S_NE11" vehsPerHour="180" speed="27.78" type="vtype_car1" departPos="random_free" departSpeed="max"/>
		<flow begin="6060" end="6120" route="route_cali_S_NE11" vehsPerHour="180" speed="27.78" type="vtype_car1" departPos="random_free" departSpeed="max"/>
		<flow begin="6120" end="6180" route="route_cali_S_NE11" vehsPerHour="180" speed="27.78" type="vtype_car1" departPos="random_free" departSpeed="max"/>
		<flow begin="6180" end="6240" route="route_cali_S_NE11" vehsPerHour="180" speed="27.78" type="vtype_car1" departPos="random_free" departSpeed="max"/>
		<flow begin="6240" end="6300" route="route_cali_S_NE11" vehsPerHour="180" speed="27.78" type="vtype_car1" departPos="random_free" departSpeed="max"/>
		<flow begin="6300" end="6360" route="route_cali_S_NE11" vehsPerHour="180" speed="27.78" type="vtype_car1" departPos="random_free" departSpeed="max"/>
		<flow begin="6360" end="6420" route="route_cali_S_NE11" vehsPerHour="180" speed="27.78" type="vtype_car1" departPos="random_free" departSpeed="max"/>
		<flow begin="6420" end="6480" route="route_cali_S_NE11" vehsPerHour="180" speed="27.78" type="vtype_car1" departPos="random_free" departSpeed="max"/>
		<flow begin="6480" end="6540" route="route_cali_S_NE11" vehsPerHour="180" speed="27.78" type="vtype_car1" departPos="random_free" departSpeed="max"/>
		<flow begin="6540" end="6600" route="route_cali_S_NE11" vehsPerHour="180" speed="27.78" type="vtype_car1" departPos="random_free" departSpeed="max"/>
		<flow begin="6600" end="6660" route="route_cali_S_NE11" vehsPerHour="180" speed="27.78" type="vtype_car1" departPos="random_free" departSpeed="max"/>
		<flow begin="6660" end="6720" route="route_cali_S_NE11" vehsPerHour="180" speed="27.78" type="vtype_car1" departPos="random_free" departSpeed="max"/>
		<flow begin="6720" end="6780" route="route_cali_S_NE11" vehsPerHour="180" speed="27.78" type="vtype_car1" departPos="random_free" departSpeed="max"/>
		<flow begin="6780" end="6840" route="route_cali_S_NE11" vehsPerHour="180" speed="27.78" type="vtype_car1" departPos="random_free" departSpeed="max"/>
		<flow begin="6840" end="6900" route="route_cali_S_NE11" vehsPerHour="180" speed="27.78" type="vtype_car1" departPos="random_free" departSpeed="max"/>
		<flow begin="6900" end="6960" route="route_cali_S_NE11" vehsPerHour="180" speed="27.78" type="vtype_car1" departPos="random_free" departSpeed="max"/>
		<flow begin="6960" end="7020" route="route_cali_S_NE11" vehsPerHour="180" speed="27.78" type="vtype_car1" departPos="random_free" departSpeed="max"/>
		<flow begin="7020" end="7080" route="route_cali_S_NE11" vehsPerHour="180" speed="27.78" type="vtype_car1" departPos="random_free" departSpeed="max"/>
		<flow begin="7080" end="7140" route="route_cali_S_NE11" vehsPerHour="180" speed="27.78" type="vtype_car1" departPos="random_free" departSpeed="max"/>
		<flow begin="7140" end="7200" route="route_cali_S_NE11" vehsPerHour="180" speed="27.78" type="vtype_car1" departPos="random_free" departSpeed="max"/>
		<flow begin="7200" end="7260" route="route_cali_S_NE11" vehsPerHour="180" speed="27.78" type="vtype_car1" departPos="random_free" departSpeed="max"/>
		<flow begin="7260" end="7320" route="route_cali_S_NE11" vehsPerHour="180" speed="27.78" type="vtype_car1" departPos="random_free" departSpeed="max"/>
		<flow begin="7320" end="7380" route="route_cali_S_NE11" vehsPerHour="180" speed="27.78" type="vtype_car1" departPos="random_free" departSpeed="max"/>
		<flow begin="7380" end="7440" route="route_cali_S_NE11" vehsPerHour="180" speed="27.78" type="vtype_car1" departPos="random_free" departSpeed="max"/>
		<flow begin="7440" end="7500" route="route_cali_S_NE11" vehsPerHour="180" speed="27.78" type="vtype_car1" departPos="random_free" departSpeed="max"/>
		<flow begin="7500" end="7560" route="route_cali_S_NE11" vehsPerHour="180" speed="27.78" type="vtype_car1" departPos="random_free" departSpeed="max"/>
		<flow begin="7560" end="7620" route="route_cali_S_NE11" vehsPerHour="180" speed="27.78" type="vtype_car1" departPos="random_free" departSpeed="max"/>
		<flow begin="7620" end="7680" route="route_cali_S_NE11" vehsPerHour="180" speed="27.78" type="vtype_car1" departPos="random_free" departSpeed="max"/>
		<flow begin="7680" end="7740" route="route_cali_S_NE11" vehsPerHour="180" speed="27.78" type="vtype_car1" departPos="random_free" departSpeed="max"/>
		<flow begin="7740" end="7800" route="route_cali_S_NE11" vehsPerHour="180" speed="27.78" type="vtype_car1" departPos="random_free" departSpeed="max"/>
		<flow begin="7800" end="7860" route="route_cali_S_NE11" vehsPerHour="180" speed="27.78" type="vtype_car1" departPos="random_free" departSpeed="max"/>
		<flow begin="7860" end="7920" route="route_cali_S_NE11" vehsPerHour="180" speed="27.78" type="vtype_car1" departPos="random_free" departSpeed="max"/>
		<flow begin="7920" end="7980" route="route_cali_S_NE11" vehsPerHour="180" speed="27.78" type="vtype_car1" departPos="random_free" departSpeed="max"/>
		<flow begin="7980" end="8040" route="route_cali_S_NE11" vehsPerHour="180" speed="27.78" type="vtype_car1" departPos="random_free" departSpeed="max"/>
		<flow begin="8040" end="8100" route="route_cali_S_NE11" vehsPerHour="180" speed="27.78" type="vtype_car1" departPos="random_free" departSpeed="max"/>
		<flow begin="8100" end="8160" route="route_cali_S_NE11" vehsPerHour="180" speed="27.78" type="vtype_car1" departPos="random_free" departSpeed="max"/>
		<flow begin="8160" end="8220" route="route_cali_S_NE11" vehsPerHour="180" speed="27.78" type="vtype_car1" departPos="random_free" departSpeed="max"/>
		<flow begin="8220" end="8280" route="route_cali_S_NE11" vehsPerHour="180" speed="27.78" type="vtype_car1" departPos="random_free" departSpeed="max"/>
		<flow begin="8280" end="8340" route="route_cali_S_NE11" vehsPerHour="180" speed="27.78" type="vtype_car1" departPos="random_free" departSpeed="max"/>
		<flow begin="8340" end="8400" route="route_cali_S_NE11" vehsPerHour="180" speed="27.78" type="vtype_car1" departPos="random_free" departSpeed="max"/>
		<flow begin="8400" end="8460" route="route_cali_S_NE11" vehsPerHour="180" speed="27.78" type="vtype_car1" departPos="random_free" departSpeed="max"/>
		<flow begin="8460" end="8520" route="route_cali_S_NE11" vehsPerHour="180" speed="27.78" type="vtype_car1" departPos="random_free" departSpeed="max"/>
		<flow begin="8520" end="8580" route="route_cali_S_NE11" vehsPerHour="180" speed="27.78" type="vtype_car1" departPos="random_free" departSpeed="max"/>
		<flow begin="8580" end="8640" route="route_cali_S_NE11" vehsPerHour="180" speed="27.78" type="vtype_car1" departPos="random_free" departSpeed="max"/>
		<flow begin="8640" end="8700" route="route_cali_S_NE11" vehsPerHour="180" speed="27.78" type="vtype_car1" departPos="random_free" departSpeed="max"/>
		<flow begin="8700" end="8760" route="route_cali_S_NE11" vehsPerHour="180" speed="27.78" type="vtype_car1" departPos="random_free" departSpeed="max"/>
		<flow begin="8760" end="8820" route="route_cali_S_NE11" vehsPerHour="180" speed="27.78" type="vtype_car1" departPos="random_free" departSpeed="max"/>
		<flow begin="8820" end="8880" route="route_cali_S_NE11" vehsPerHour="180" speed="27.78" type="vtype_car1" departPos="random_free" departSpeed="max"/>
		<flow begin="8880" end="8940" route="route_cali_S_NE11" vehsPerHour="180" speed="27.78" type="vtype_car1" departPos="random_free" departSpeed="max"/>
		<flow begin="8940" end="9000" route="route_cali_S_NE11" vehsPerHour="180" speed="27.78" type="vtype_car1" departPos="random_free" departSpeed="max"/>
		<flow begin="9000" end="9060" route="route_cali_S_NE11" vehsPerHour="180" speed="27.78" type="vtype_car1" departPos="random_free" departSpeed="max"/>
		<flow begin="9060" end="9120" route="route_cali_S_NE11" vehsPerHour="180" speed="27.78" type="vtype_car1" departPos="random_free" departSpeed="max"/>
		<flow begin="9120" end="9180" route="route_cali_S_NE11" vehsPerHour="180" speed="27.78" type="vtype_car1" departPos="random_free" departSpeed="max"/>
		<flow begin="9180" end="9240" route="route_cali_S_NE11" vehsPerHour="180" speed="27.78" type="vtype_car1" departPos="random_free" departSpeed="max"/>
		<flow begin="9240" end="9300" route="route_cali_S_NE11" vehsPerHour="180" speed="27.78" type="vtype_car1" departPos="random_free" departSpeed="max"/>
		<flow begin="9300" end="9360" route="route_cali_S_NE11" vehsPerHour="180" speed="27.78" type="vtype_car1" departPos="random_free" departSpeed="max"/>
		<flow begin="9360" end="9420" route="route_cali_S_NE11" vehsPerHour="180" speed="27.78" type="vtype_car1" departPos="random_free" departSpeed="max"/>
		<flow begin="9420" end="9480" route="route_cali_S_NE11" vehsPerHour="180" speed="27.78" type="vtype_car1" departPos="random_free" departSpeed="max"/>
		<flow begin="9480" end="9540" route="route_cali_S_NE11" vehsPerHour="180" speed="27.78" type="vtype_car1" departPos="random_free" departSpeed="max"/>
		<flow begin="9540" end="9600" route="route_cali_S_NE11" vehsPerHour="180" speed="27.78" type="vtype_car1" departPos="random_free" departSpeed="max"/>
		<flow begin="9600" end="9660" route="route_cali_S_NE11" vehsPerHour="180" speed="27.78" type="vtype_car1" departPos="random_free" departSpeed="max"/>
		<flow begin="9660" end="9720" route="route_cali_S_NE11" vehsPerHour="180" speed="27.78" type="vtype_car1" departPos="random_free" departSpeed="max"/>
		<flow begin="9720" end="9780" route="route_cali_S_NE11" vehsPerHour="180" speed="27.78" type="vtype_car1" departPos="random_free" departSpeed="max"/>
		<flow begin="9780" end="9840" route="route_cali_S_NE11" vehsPerHour="180" speed="27.78" type="vtype_car1" departPos="random_free" departSpeed="max"/>
		<flow begin="9840" end="9900" route="route_cali_S_NE11" vehsPerHour="180" speed="27.78" type="vtype_car1" departPos="random_free" departSpeed="max"/>
		<flow begin="9900" end="9960" route="route_cali_S_NE11" vehsPerHour="180" speed="27.78" type="vtype_car1" departPos="random_free" departSpeed="max"/>
		<flow begin="9960" end="10020" route="route_cali_S_NE11" vehsPerHour="180" speed="27.78" type="vtype_car1" departPos="random_free" departSpeed="max"/>
		<flow begin="10020" end="10080" route="route_cali_S_NE11" vehsPerHour="180" speed="27.78" type="vtype_car1" departPos="random_free" departSpeed="max"/>
		<flow begin="10080" end="10140" route="route_cali_S_NE11" vehsPerHour="180" speed="27.78" type="vtype_car1" departPos="random_free" departSpeed="max"/>
		<flow begin="10140" end="10200" route="route_cali_S_NE11" vehsPerHour="180" speed="27.78" type="vtype_car1" departPos="random_free" departSpeed="max"/>
		<flow begin="10200" end="10260" route="route_cali_S_NE11" vehsPerHour="180" speed="27.78" type="vtype_car1" departPos="random_free" departSpeed="max"/>
		<flow begin="10260" end="10320" route="route_cali_S_NE11" vehsPerHour="180" speed="27.78" type="vtype_car1" departPos="random_free" departSpeed="max"/>
		<flow begin="10320" end="10380" route="route_cali_S_NE11" vehsPerHour="180" speed="27.78" type="vtype_car1" departPos="random_free" departSpeed="max"/>
		<flow begin="10380" end="10440" route="route_cali_S_NE11" vehsPerHour="180" speed="27.78" type="vtype_car1" departPos="random_free" departSpeed="max"/>
		<flow begin="10440" end="10500" route="route_cali_S_NE11" vehsPerHour="180" speed="27.78" type="vtype_car1" departPos="random_free" departSpeed="max"/>
		<flow begin="10500" end="10560" route="route_cali_S_NE11" vehsPerHour="180" speed="27.78" type="vtype_car1" departPos="random_free" departSpeed="max"/>
		<flow begin="10560" end="10620" route="route_cali_S_NE11" vehsPerHour="180" speed="27.78" type="vtype_car1" departPos="random_free" departSpeed="max"/>
		<flow begin="10620" end="10680" route="route_cali_S_NE11" vehsPerHour="180" speed="27.78" type="vtype_car1" departPos="random_free" departSpeed="max"/>
		<flow begin="10680" end="10740" route="route_cali_S_NE11" vehsPerHour="180" speed="27.78" type="vtype_car1" departPos="random_free" departSpeed="max"/>
		<flow begin="10740" end="10800" route="route_cali_S_NE11" vehsPerHour="180" speed="27.78" type="vtype_car1" departPos="random_free" departSpeed="max"/>
		<flow begin="10800" end="10860" route="route_cali_S_NE11" vehsPerHour="180" speed="27.78" type="vtype_car1" departPos="random_free" departSpeed="max"/>
		<flow begin="10860" end="10920" route="route_cali_S_NE11" vehsPerHour="180" speed="27.78" type="vtype_car1" departPos="random_free" departSpeed="max"/>
		<flow begin="10920" end="10980" route="route_cali_S_NE11" vehsPerHour="180" speed="27.78" type="vtype_car1" departPos="random_free" departSpeed="max"/>
		<flow begin="10980" end="11040" route="route_cali_S_NE11" vehsPerHour="180" speed="27.78" type="vtype_car1" departPos="random_free" departSpeed="max"/>
		<flow begin="11040" end="11100" route="route_cali_S_NE11" vehsPerHour="180" speed="27.78" type="vtype_car1" departPos="random_free" departSpeed="max"/>
		<flow begin="11100" end="11160" route="route_cali_S_NE11" vehsPerHour="180" speed="27.78" type="vtype_car1" departPos="random_free" departSpeed="max"/>
		<flow begin="11160" end="11220" route="route_cali_S_NE11" vehsPerHour="180" speed="27.78" type="vtype_car1" departPos="random_free" departSpeed="max"/>
		<flow begin="11220" end="11280" route="route_cali_S_NE11" vehsPerHour="180" speed="27.78" type="vtype_car1" departPos="random_free" departSpeed="max"/>