<additional xmlns:xsi="http://www.w3.org/2001/XMLSchema-instance" xsi:noNamespaceSchemaLocation="http://sumo.dlr.de/xsd/additional_file.xsd">

<!--
    Digital Twin of Geneva Motorway (DT-GM) in SUMO
    Author: Krešimir Kušić

    This program is free software: you can redistribute it and/or modify
    it under the terms of the GNU General Public License as published by
    the Free Software Foundation, either version 3 of the License, or
    (at your option) any later version.

    This program is distributed in the hope that it will be useful,
    but WITHOUT ANY WARRANTY; without even the implied warranty of
    MERCHANTABILITY or FITNESS FOR A PARTICULAR PURPOSE.  See the
    GNU General Public License for more details.

    You should have received a copy of the GNU General Public License
    along with this program. If not, see <http://www.gnu.org/licenses/>.
-->

	<vTypeDistribution id="vtype_car1">

		<vType id="vtype_car10" tau="1.01" sigma="0.500" length="5.000" lcStrategic="0.793" minGap="1.480" color="blue" vClass="passenger" carFollowModel="EIDM" />

		<vType id="vtype_car11" tau="1.012" sigma="0.500" length="5.000" lcStrategic="0.784" minGap="1.524" color="blue" vClass="passenger" carFollowModel="EIDM" />

		<vType id="vtype_car12" tau="0.973" sigma="0.500" length="5.000" lcStrategic="0.777" minGap="1.530" color="blue" vClass="passenger" carFollowModel="EIDM" />

		<vType id="vtype_car13" tau="0.942" sigma="0.500" length="5.000" lcStrategic="0.753" minGap="1.481" color="blue" vClass="passenger" carFollowModel="EIDM" />

		<vType id="vtype_car14" tau="0.953" sigma="0.500" length="5.000" lcStrategic="0.696" minGap="1.481" color="blue" vClass="passenger" carFollowModel="EIDM" />

		<vType id="vtype_car15" tau="1.004" sigma="0.500" length="5.000" lcStrategic="0.822" minGap="1.526" color="blue" vClass="passenger" carFollowModel="EIDM" />

		<vType id="vtype_car16" tau="0.988" sigma="0.500" length="5.000" lcStrategic="0.843" minGap="1.476" color="blue" vClass="passenger" carFollowModel="EIDM" />

		<vType id="vtype_car17" tau="0.951" sigma="0.500" length="5.000" lcStrategic="0.714" minGap="1.518" color="blue" vClass="passenger" carFollowModel="EIDM" />

		<vType id="vtype_car18" tau="1.06" sigma="0.500" length="5.000" lcStrategic="0.782" minGap="1.472" color="blue" vClass="passenger" carFollowModel="EIDM" />

		<vType id="vtype_car19" tau="0.924" sigma="0.500" length="5.000" lcStrategic="0.812" minGap="1.485" color="blue" vClass="passenger" carFollowModel="EIDM" />

		<vType id="vtype_car110" tau="0.963" sigma="0.500" length="5.000" lcStrategic="0.739" minGap="1.495" color="blue" vClass="passenger" carFollowModel="EIDM" />

		<vType id="vtype_car111" tau="1.002" sigma="0.500" length="5.000" lcStrategic="0.752" minGap="1.496" color="blue" vClass="passenger" carFollowModel="EIDM" />

		<vType id="vtype_car112" tau="1.049" sigma="0.500" length="5.000" lcStrategic="0.707" minGap="1.497" color="blue" vClass="passenger" carFollowModel="EIDM" />

		<vType id="vtype_car113" tau="0.899" sigma="0.500" length="5.000" lcStrategic="0.709" minGap="1.501" color="blue" vClass="passenger" carFollowModel="EIDM" />

		<vType id="vtype_car114" tau="0.973" sigma="0.500" length="5.000" lcStrategic="0.821" minGap="1.493" color="blue" vClass="passenger" carFollowModel="EIDM" />

		<vType id="vtype_car115" tau="1.025" sigma="0.500" length="5.000" lcStrategic="0.821" minGap="1.475" color="blue" vClass="passenger" carFollowModel="EIDM" />

		<vType id="vtype_car116" tau="1.059" sigma="0.500" length="5.000" lcStrategic="0.751" minGap="1.509" color="blue" vClass="passenger" carFollowModel="EIDM" />

		<vType id="vtype_car117" tau="0.902" sigma="0.500" length="5.000" lcStrategic="0.816" minGap="1.518" color="blue" vClass="passenger" carFollowModel="EIDM" />

		<vType id="vtype_car118" tau="0.901" sigma="0.500" length="5.000" lcStrategic="0.843" minGap="1.490" color="blue" vClass="passenger" carFollowModel="EIDM" />

		<vType id="vtype_car119" tau="1.023" sigma="0.500" length="5.000" lcStrategic="0.795" minGap="1.513" color="blue" vClass="passenger" carFollowModel="EIDM" />

		<vType id="vtype_car120" tau="0.956" sigma="0.500" length="5.000" lcStrategic="0.741" minGap="1.511" color="blue" vClass="passenger" carFollowModel="EIDM" />

		<vType id="vtype_car121" tau="0.937" sigma="0.500" length="5.000" lcStrategic="0.812" minGap="1.525" color="blue" vClass="passenger" carFollowModel="EIDM" />

		<vType id="vtype_car122" tau="1.012" sigma="0.500" length="5.000" lcStrategic="0.772" minGap="1.495" color="blue" vClass="passenger" carFollowModel="EIDM" />

		<vType id="vtype_car123" tau="0.978" sigma="0.500" length="5.000" lcStrategic="0.825" minGap="1.497" color="blue" vClass="passenger" carFollowModel="EIDM" />

		<vType id="vtype_car124" tau="1.132" sigma="0.500" length="5.000" lcStrategic="0.910" minGap="1.508" color="blue" vClass="passenger" carFollowModel="EIDM" />

		<vType id="vtype_car125" tau="0.949" sigma="0.500" length="5.000" lcStrategic="0.781" minGap="1.566" color="blue" vClass="passenger" carFollowModel="EIDM" />

		<vType id="vtype_car126" tau="0.956" sigma="0.500" length="5.000" lcStrategic="0.797" minGap="1.476" color="blue" vClass="passenger" carFollowModel="EIDM" />

		<vType id="vtype_car127" tau="1.066" sigma="0.500" length="5.000" lcStrategic="0.771" minGap="1.502" color="blue" vClass="passenger" carFollowModel="EIDM" />

		<vType id="vtype_car128" tau="0.957" sigma="0.500" length="5.000" lcStrategic="0.728" minGap="1.509" color="blue" vClass="passenger" carFollowModel="EIDM" />

		<vType id="vtype_car129" tau="1.061" sigma="0.500" length="5.000" lcStrategic="0.738" minGap="1.485" color="blue" vClass="passenger" carFollowModel="EIDM" />

		<vType id="vtype_car130" tau="0.955" sigma="0.500" length="5.000" lcStrategic="0.859" minGap="1.521" color="blue" vClass="passenger" carFollowModel="EIDM" />

		<vType id="vtype_car131" tau="0.911" sigma="0.500" length="5.000" lcStrategic="0.750" minGap="1.526" color="blue" vClass="passenger" carFollowModel="EIDM" />

		<vType id="vtype_car132" tau="1.052" sigma="0.500" length="5.000" lcStrategic="0.837" minGap="1.496" color="blue" vClass="passenger" carFollowModel="EIDM" />

		<vType id="vtype_car133" tau="1.048" sigma="0.500" length="5.000" lcStrategic="0.806" minGap="1.492" color="blue" vClass="passenger" carFollowModel="EIDM" />

		<vType id="vtype_car134" tau="1.022" sigma="0.500" length="5.000" lcStrategic="0.837" minGap="1.451" color="blue" vClass="passenger" carFollowModel="EIDM" />

		<vType id="vtype_car135" tau="0.893" sigma="0.500" length="5.000" lcStrategic="0.796" minGap="1.482" color="blue" vClass="passenger" carFollowModel="EIDM" />

		<vType id="vtype_car136" tau="0.982" sigma="0.500" length="5.000" lcStrategic="0.832" minGap="1.510" color="blue" vClass="passenger" carFollowModel="EIDM" />

		<vType id="vtype_car137" tau="1.07" sigma="0.500" length="5.000" lcStrategic="0.886" minGap="1.492" color="blue" vClass="passenger" carFollowModel="EIDM" />

		<vType id="vtype_car138" tau="0.942" sigma="0.500" length="5.000" lcStrategic="0.795" minGap="1.529" color="blue" vClass="passenger" carFollowModel="EIDM" />

		<vType id="vtype_car139" tau="1.064" sigma="0.500" length="5.000" lcStrategic="0.858" minGap="1.513" color="blue" vClass="passenger" carFollowModel="EIDM" />

		<vType id="vtype_car140" tau="1.015" sigma="0.500" length="5.000" lcStrategic="0.811" minGap="1.469" color="blue" vClass="passenger" carFollowModel="EIDM" />

		<vType id="vtype_car141" tau="0.995" sigma="0.500" length="5.000" lcStrategic="0.938" minGap="1.483" color="blue" vClass="passenger" carFollowModel="EIDM" />

		<vType id="vtype_car142" tau="0.954" sigma="0.500" length="5.000" lcStrategic="0.876" minGap="1.500" color="blue" vClass="passenger" carFollowModel="EIDM" />

		<vType id="vtype_car143" tau="1.052" sigma="0.500" length="5.000" lcStrategic="0.844" minGap="1.508" color="blue" vClass="passenger" carFollowModel="EIDM" />

		<vType id="vtype_car144" tau="1.048" sigma="0.500" length="5.000" lcStrategic="0.794" minGap="1.493" color="blue" vClass="passenger" carFollowModel="EIDM" />

		<vType id="vtype_car145" tau="1.056" sigma="0.500" length="5.000" lcStrategic="0.782" minGap="1.505" color="blue" vClass="passenger" carFollowModel="EIDM" />

		<vType id="vtype_car146" tau="1.013" sigma="0.500" length="5.000" lcStrategic="0.807" minGap="1.529" color="blue" vClass="passenger" carFollowModel="EIDM" />

		<vType id="vtype_car147" tau="0.948" sigma="0.500" length="5.000" lcStrategic="0.882" minGap="1.468" color="blue" vClass="passenger" carFollowModel="EIDM" />

		<vType id="vtype_car148" tau="0.986" sigma="0.500" length="5.000" lcStrategic="0.832" minGap="1.506" color="blue" vClass="passenger" carFollowModel="EIDM" />

		<vType id="vtype_car149" tau="0.955" sigma="0.500" length="5.000" lcStrategic="0.837" minGap="1.462" color="blue" vClass="passenger" carFollowModel="EIDM" />

		<vType id="vtype_car150" tau="0.966" sigma="0.500" length="5.000" lcStrategic="0.827" minGap="1.533" color="blue" vClass="passenger" carFollowModel="EIDM" />

		<vType id="vtype_car151" tau="0.986" sigma="0.500" length="5.000" lcStrategic="0.815" minGap="1.482" color="blue" vClass="passenger" carFollowModel="EIDM" />

		<vType id="vtype_car152" tau="0.969" sigma="0.500" length="5.000" lcStrategic="0.814" minGap="1.512" color="blue" vClass="passenger" carFollowModel="EIDM" />

		<vType id="vtype_car153" tau="0.96" sigma="0.500" length="5.000" lcStrategic="0.818" minGap="1.495" color="blue" vClass="passenger" carFollowModel="EIDM" />

		<vType id="vtype_car154" tau="0.966" sigma="0.500" length="5.000" lcStrategic="0.919" minGap="1.512" color="blue" vClass="passenger" carFollowModel="EIDM" />

		<vType id="vtype_car155" tau="0.96" sigma="0.500" length="5.000" lcStrategic="0.784" minGap="1.478" color="blue" vClass="passenger" carFollowModel="EIDM" />

		<vType id="vtype_car156" tau="1.054" sigma="0.500" length="5.000" lcStrategic="0.774" minGap="1.489" color="blue" vClass="passenger" carFollowModel="EIDM" />

		<vType id="vtype_car157" tau="0.955" sigma="0.500" length="5.000" lcStrategic="0.792" minGap="1.499" color="blue" vClass="passenger" carFollowModel="EIDM" />

		<vType id="vtype_car158" tau="1.021" sigma="0.500" length="5.000" lcStrategic="0.855" minGap="1.516" color="blue" vClass="passenger" carFollowModel="EIDM" />

		<vType id="vtype_car159" tau="1.024" sigma="0.500" length="5.000" lcStrategic="0.847" minGap="1.486" color="blue" vClass="passenger" carFollowModel="EIDM" />

		<vType id="vtype_car160" tau="0.901" sigma="0.500" length="5.000" lcStrategic="0.840" minGap="1.520" color="blue" vClass="passenger" carFollowModel="EIDM" />

		<vType id="vtype_car161" tau="1.102" sigma="0.500" length="5.000" lcStrategic="0.825" minGap="1.502" color="blue" vClass="passenger" carFollowModel="EIDM" />

		<vType id="vtype_car162" tau="0.979" sigma="0.500" length="5.000" lcStrategic="0.824" minGap="1.498" color="blue" vClass="passenger" carFollowModel="EIDM" />

		<vType id="vtype_car163" tau="1.071" sigma="0.500" length="5.000" lcStrategic="0.762" minGap="1.505" color="blue" vClass="passenger" carFollowModel="EIDM" />

		<vType id="vtype_car164" tau="1.083" sigma="0.500" length="5.000" lcStrategic="0.871" minGap="1.505" color="blue" vClass="passenger" carFollowModel="EIDM" />

		<vType id="vtype_car165" tau="1.013" sigma="0.500" length="5.000" lcStrategic="0.812" minGap="1.511" color="blue" vClass="passenger" carFollowModel="EIDM" />

		<vType id="vtype_car166" tau="1.007" sigma="0.500" length="5.000" lcStrategic="0.827" minGap="1.497" color="blue" vClass="passenger" carFollowModel="EIDM" />

		<vType id="vtype_car167" tau="1.079" sigma="0.500" length="5.000" lcStrategic="0.815" minGap="1.491" color="blue" vClass="passenger" carFollowModel="EIDM" />

		<vType id="vtype_car168" tau="1.043" sigma="0.500" length="5.000" lcStrategic="0.724" minGap="1.524" color="blue" vClass="passenger" carFollowModel="EIDM" />

		<vType id="vtype_car169" tau="0.999" sigma="0.500" length="5.000" lcStrategic="0.779" minGap="1.477" color="blue" vClass="passenger" carFollowModel="EIDM" />

		<vType id="vtype_car170" tau="0.97" sigma="0.500" length="5.000" lcStrategic="0.762" minGap="1.515" color="blue" vClass="passenger" carFollowModel="EIDM" />

		<vType id="vtype_car171" tau="0.933" sigma="0.500" length="5.000" lcStrategic="0.742" minGap="1.506" color="blue" vClass="passenger" carFollowModel="EIDM" />

		<vType id="vtype_car172" tau="1.025" sigma="0.500" length="5.000" lcStrategic="0.777" minGap="1.469" color="blue" vClass="passenger" carFollowModel="EIDM" />

		<vType id="vtype_car173" tau="0.948" sigma="0.500" length="5.000" lcStrategic="0.862" minGap="1.531" color="blue" vClass="passenger" carFollowModel="EIDM" />

		<vType id="vtype_car174" tau="0.981" sigma="0.500" length="5.000" lcStrategic="0.766" minGap="1.481" color="blue" vClass="passenger" carFollowModel="EIDM" />

		<vType id="vtype_car175" tau="0.969" sigma="0.500" length="5.000" lcStrategic="0.908" minGap="1.513" color="blue" vClass="passenger" carFollowModel="EIDM" />

		<vType id="vtype_car176" tau="0.938" sigma="0.500" length="5.000" lcStrategic="0.875" minGap="1.489" color="blue" vClass="passenger" carFollowModel="EIDM" />

		<vType id="vtype_car177" tau="0.99" sigma="0.500" length="5.000" lcStrategic="0.791" minGap="1.508" color="blue" vClass="passenger" carFollowModel="EIDM" />

		<vType id="vtype_car178" tau="0.968" sigma="0.500" length="5.000" lcStrategic="0.845" minGap="1.498" color="blue" vClass="passenger" carFollowModel="EIDM" />

		<vType id="vtype_car179" tau="1.004" sigma="0.500" length="5.000" lcStrategic="0.842" minGap="1.512" color="blue" vClass="passenger" carFollowModel="EIDM" />

		<vType id="vtype_car180" tau="1.096" sigma="0.500" length="5.000" lcStrategic="0.695" minGap="1.498" color="blue" vClass="passenger" carFollowModel="EIDM" />

		<vType id="vtype_car181" tau="1.038" sigma="0.500" length="5.000" lcStrategic="0.782" minGap="1.487" color="blue" vClass="passenger" carFollowModel="EIDM" />

		<vType id="vtype_car182" tau="0.94" sigma="0.500" length="5.000" lcStrategic="0.762" minGap="1.506" color="blue" vClass="passenger" carFollowModel="EIDM" />

		<vType id="vtype_car183" tau="1.029" sigma="0.500" length="5.000" lcStrategic="0.785" minGap="1.508" color="blue" vClass="passenger" carFollowModel="EIDM" />

		<vType id="vtype_car184" tau="0.971" sigma="0.500" length="5.000" lcStrategic="0.805" minGap="1.511" color="blue" vClass="passenger" carFollowModel="EIDM" />

		<vType id="vtype_car185" tau="0.966" sigma="0.500" length="5.000" lcStrategic="0.881" minGap="1.499" color="blue" vClass="passenger" carFollowModel="EIDM" />

		<vType id="vtype_car186" tau="1.083" sigma="0.500" length="5.000" lcStrategic="0.758" minGap="1.492" color="blue" vClass="passenger" carFollowModel="EIDM" />

		<vType id="vtype_car187" tau="1.069" sigma="0.500" length="5.000" lcStrategic="0.722" minGap="1.493" color="blue" vClass="passenger" carFollowModel="EIDM" />

		<vType id="vtype_car188" tau="0.979" sigma="0.500" length="5.000" lcStrategic="0.775" minGap="1.490" color="blue" vClass="passenger" carFollowModel="EIDM" />

		<vType id="vtype_car189" tau="0.995" sigma="0.500" length="5.000" lcStrategic="0.799" minGap="1.522" color="blue" vClass="passenger" carFollowModel="EIDM" />

		<vType id="vtype_car190" tau="0.962" sigma="0.500" length="5.000" lcStrategic="0.833" minGap="1.542" color="blue" vClass="passenger" carFollowModel="EIDM" />

		<vType id="vtype_car191" tau="1.028" sigma="0.500" length="5.000" lcStrategic="0.811" minGap="1.479" color="blue" vClass="passenger" carFollowModel="EIDM" />

		<vType id="vtype_car192" tau="0.945" sigma="0.500" length="5.000" lcStrategic="0.748" minGap="1.477" color="blue" vClass="passenger" carFollowModel="EIDM" />

		<vType id="vtype_car193" tau="1.019" sigma="0.500" length="5.000" lcStrategic="0.829" minGap="1.522" color="blue" vClass="passenger" carFollowModel="EIDM" />

		<vType id="vtype_car194" tau="0.991" sigma="0.500" length="5.000" lcStrategic="0.743" minGap="1.490" color="blue" vClass="passenger" carFollowModel="EIDM" />

		<vType id="vtype_car195" tau="0.978" sigma="0.500" length="5.000" lcStrategic="0.787" minGap="1.499" color="blue" vClass="passenger" carFollowModel="EIDM" />

		<vType id="vtype_car196" tau="1.03" sigma="0.500" length="5.000" lcStrategic="0.883" minGap="1.492" color="blue" vClass="passenger" carFollowModel="EIDM" />

		<vType id="vtype_car197" tau="1.087" sigma="0.500" length="5.000" lcStrategic="0.747" minGap="1.500" color="blue" vClass="passenger" carFollowModel="EIDM" />

		<vType id="vtype_car198" tau="1.031" sigma="0.500" length="5.000" lcStrategic="0.718" minGap="1.504" color="blue" vClass="passenger" carFollowModel="EIDM" />

		<vType id="vtype_car199" tau="0.954" sigma="0.500" length="5.000" lcStrategic="0.824" minGap="1.503" color="blue" vClass="passenger" carFollowModel="EIDM" />

		<vType id="vtype_car1100" tau="1.019" sigma="0.500" length="5.000" lcStrategic="0.740" minGap="1.461" color="blue" vClass="passenger" carFollowModel="EIDM" />

		<vType id="vtype_car1101" tau="1.056" sigma="0.500" length="5.000" lcStrategic="0.803" minGap="1.492" color="blue" vClass="passenger" carFollowModel="EIDM" />

		<vType id="vtype_car1102" tau="0.992" sigma="0.500" length="5.000" lcStrategic="0.751" minGap="1.490" color="blue" vClass="passenger" carFollowModel="EIDM" />

		<vType id="vtype_car1103" tau="0.963" sigma="0.500" length="5.000" lcStrategic="0.793" minGap="1.499" color="blue" vClass="passenger" carFollowModel="EIDM" />

		<vType id="vtype_car1104" tau="1.03" sigma="0.500" length="5.000" lcStrategic="0.733" minGap="1.503" color="blue" vClass="passenger" carFollowModel="EIDM" />

		<vType id="vtype_car1105" tau="0.901" sigma="0.500" length="5.000" lcStrategic="0.862" minGap="1.483" color="blue" vClass="passenger" carFollowModel="EIDM" />

		<vType id="vtype_car1106" tau="1.125" sigma="0.500" length="5.000" lcStrategic="0.782" minGap="1.503" color="blue" vClass="passenger" carFollowModel="EIDM" />

		<vType id="vtype_car1107" tau="0.96" sigma="0.500" length="5.000" lcStrategic="0.769" minGap="1.492" color="blue" vClass="passenger" carFollowModel="EIDM" />

		<vType id="vtype_car1108" tau="1.074" sigma="0.500" length="5.000" lcStrategic="0.782" minGap="1.520" color="blue" vClass="passenger" carFollowModel="EIDM" />

		<vType id="vtype_car1109" tau="1.065" sigma="0.500" length="5.000" lcStrategic="0.784" minGap="1.498" color="blue" vClass="passenger" carFollowModel="EIDM" />

		<vType id="vtype_car1110" tau="1.055" sigma="0.500" length="5.000" lcStrategic="0.717" minGap="1.467" color="blue" vClass="passenger" carFollowModel="EIDM" />

		<vType id="vtype_car1111" tau="0.973" sigma="0.500" length="5.000" lcStrategic="0.895" minGap="1.481" color="blue" vClass="passenger" carFollowModel="EIDM" />

		<vType id="vtype_car1112" tau="0.989" sigma="0.500" length="5.000" lcStrategic="0.822" minGap="1.527" color="blue" vClass="passenger" carFollowModel="EIDM" />

		<vType id="vtype_car1113" tau="0.993" sigma="0.500" length="5.000" lcStrategic="0.809" minGap="1.477" color="blue" vClass="passenger" carFollowModel="EIDM" />

		<vType id="vtype_car1114" tau="0.967" sigma="0.500" length="5.000" lcStrategic="0.822" minGap="1.518" color="blue" vClass="passenger" carFollowModel="EIDM" />

		<vType id="vtype_car1115" tau="0.926" sigma="0.500" length="5.000" lcStrategic="0.702" minGap="1.512" color="blue" vClass="passenger" carFollowModel="EIDM" />

		<vType id="vtype_car1116" tau="0.951" sigma="0.500" length="5.000" lcStrategic="0.766" minGap="1.508" color="blue" vClass="passenger" carFollowModel="EIDM" />

		<vType id="vtype_car1117" tau="1.021" sigma="0.500" length="5.000" lcStrategic="0.785" minGap="1.477" color="blue" vClass="passenger" carFollowModel="EIDM" />

		<vType id="vtype_car1118" tau="0.982" sigma="0.500" length="5.000" lcStrategic="0.824" minGap="1.476" color="blue" vClass="passenger" carFollowModel="EIDM" />

		<vType id="vtype_car1119" tau="1.017" sigma="0.500" length="5.000" lcStrategic="0.786" minGap="1.478" color="blue" vClass="passenger" carFollowModel="EIDM" />

		<vType id="vtype_car1120" tau="1.002" sigma="0.500" length="5.000" lcStrategic="0.802" minGap="1.493" color="blue" vClass="passenger" carFollowModel="EIDM" />

		<vType id="vtype_car1121" tau="1.064" sigma="0.500" length="5.000" lcStrategic="0.812" minGap="1.482" color="blue" vClass="passenger" carFollowModel="EIDM" />

		<vType id="vtype_car1122" tau="0.995" sigma="0.500" length="5.000" lcStrategic="0.788" minGap="1.504" color="blue" vClass="passenger" carFollowModel="EIDM" />

		<vType id="vtype_car1123" tau="0.916" sigma="0.500" length="5.000" lcStrategic="0.772" minGap="1.515" color="blue" vClass="passenger" carFollowModel="EIDM" />

		<vType id="vtype_car1124" tau="1.016" sigma="0.500" length="5.000" lcStrategic="0.786" minGap="1.493" color="blue" vClass="passenger" carFollowModel="EIDM" />

		<vType id="vtype_car1125" tau="1.095" sigma="0.500" length="5.000" lcStrategic="0.777" minGap="1.477" color="blue" vClass="passenger" carFollowModel="EIDM" />

		<vType id="vtype_car1126" tau="1.014" sigma="0.500" length="5.000" lcStrategic="0.878" minGap="1.512" color="blue" vClass="passenger" carFollowModel="EIDM" />

		<vType id="vtype_car1127" tau="0.996" sigma="0.500" length="5.000" lcStrategic="0.839" minGap="1.487" color="blue" vClass="passenger" carFollowModel="EIDM" />

		<vType id="vtype_car1128" tau="1.013" sigma="0.500" length="5.000" lcStrategic="0.845" minGap="1.463" color="blue" vClass="passenger" carFollowModel="EIDM" />

		<vType id="vtype_car1129" tau="0.995" sigma="0.500" length="5.000" lcStrategic="0.774" minGap="1.491" color="blue" vClass="passenger" carFollowModel="EIDM" />

		<vType id="vtype_car1130" tau="1.027" sigma="0.500" length="5.000" lcStrategic="0.853" minGap="1.491" color="blue" vClass="passenger" carFollowModel="EIDM" />

		<vType id="vtype_car1131" tau="1.026" sigma="0.500" length="5.000" lcStrategic="0.835" minGap="1.529" color="blue" vClass="passenger" carFollowModel="EIDM" />

		<vType id="vtype_car1132" tau="0.965" sigma="0.500" length="5.000" lcStrategic="0.815" minGap="1.519" color="blue" vClass="passenger" carFollowModel="EIDM" />

		<vType id="vtype_car1133" tau="1.056" sigma="0.500" length="5.000" lcStrategic="0.685" minGap="1.503" color="blue" vClass="passenger" carFollowModel="EIDM" />

		<vType id="vtype_car1134" tau="0.971" sigma="0.500" length="5.000" lcStrategic="0.870" minGap="1.501" color="blue" vClass="passenger" carFollowModel="EIDM" />

		<vType id="vtype_car1135" tau="0.967" sigma="0.500" length="5.000" lcStrategic="0.800" minGap="1.482" color="blue" vClass="passenger" carFollowModel="EIDM" />

		<vType id="vtype_car1136" tau="0.985" sigma="0.500" length="5.000" lcStrategic="0.767" minGap="1.549" color="blue" vClass="passenger" carFollowModel="EIDM" />

		<vType id="vtype_car1137" tau="0.988" sigma="0.500" length="5.000" lcStrategic="0.913" minGap="1.516" color="blue" vClass="passenger" carFollowModel="EIDM" />

		<vType id="vtype_car1138" tau="1.069" sigma="0.500" length="5.000" lcStrategic="0.892" minGap="1.482" color="blue" vClass="passenger" carFollowModel="EIDM" />

		<vType id="vtype_car1139" tau="1.012" sigma="0.500" length="5.000" lcStrategic="0.740" minGap="1.500" color="blue" vClass="passenger" carFollowModel="EIDM" />

		<vType id="vtype_car1140" tau="0.91" sigma="0.500" length="5.000" lcStrategic="0.758" minGap="1.479" color="blue" vClass="passenger" carFollowModel="EIDM" />

		<vType id="vtype_car1141" tau="0.987" sigma="0.500" length="5.000" lcStrategic="0.841" minGap="1.546" color="blue" vClass="passenger" carFollowModel="EIDM" />

		<vType id="vtype_car1142" tau="1.004" sigma="0.500" length="5.000" lcStrategic="0.849" minGap="1.487" color="blue" vClass="passenger" carFollowModel="EIDM" />

		<vType id="vtype_car1143" tau="1.041" sigma="0.500" length="5.000" lcStrategic="0.906" minGap="1.528" color="blue" vClass="passenger" carFollowModel="EIDM" />

		<vType id="vtype_car1144" tau="0.966" sigma="0.500" length="5.000" lcStrategic="0.789" minGap="1.495" color="blue" vClass="passenger" carFollowModel="EIDM" />

		<vType id="vtype_car1145" tau="0.923" sigma="0.500" length="5.000" lcStrategic="0.819" minGap="1.506" color="blue" vClass="passenger" carFollowModel="EIDM" />

		<vType id="vtype_car1146" tau="1.088" sigma="0.500" length="5.000" lcStrategic="0.752" minGap="1.478" color="blue" vClass="passenger" carFollowModel="EIDM" />

		<vType id="vtype_car1147" tau="0.983" sigma="0.500" length="5.000" lcStrategic="0.803" minGap="1.509" color="blue" vClass="passenger" carFollowModel="EIDM" />

		<vType id="vtype_car1148" tau="1.001" sigma="0.500" length="5.000" lcStrategic="0.853" minGap="1.493" color="blue" vClass="passenger" carFollowModel="EIDM" />

		<vType id="vtype_car1149" tau="1.047" sigma="0.500" length="5.000" lcStrategic="0.819" minGap="1.501" color="blue" vClass="passenger" carFollowModel="EIDM" />

		<vType id="vtype_car1150" tau="1.03" sigma="0.500" length="5.000" lcStrategic="0.817" minGap="1.529" color="blue" vClass="passenger" carFollowModel="EIDM" />

		<vType id="vtype_car1151" tau="0.994" sigma="0.500" length="5.000" lcStrategic="0.723" minGap="1.506" color="blue" vClass="passenger" carFollowModel="EIDM" />

		<vType id="vtype_car1152" tau="1.089" sigma="0.500" length="5.000" lcStrategic="0.737" minGap="1.496" color="blue" vClass="passenger" carFollowModel="EIDM" />

		<vType id="vtype_car1153" tau="0.958" sigma="0.500" length="5.000" lcStrategic="0.823" minGap="1.514" color="blue" vClass="passenger" carFollowModel="EIDM" />

		<vType id="vtype_car1154" tau="0.962" sigma="0.500" length="5.000" lcStrategic="0.796" minGap="1.527" color="blue" vClass="passenger" carFollowModel="EIDM" />

		<vType id="vtype_car1155" tau="1.055" sigma="0.500" length="5.000" lcStrategic="0.805" minGap="1.476" color="blue" vClass="passenger" carFollowModel="EIDM" />

		<vType id="vtype_car1156" tau="0.982" sigma="0.500" length="5.000" lcStrategic="0.889" minGap="1.509" color="blue" vClass="passenger" carFollowModel="EIDM" />

		<vType id="vtype_car1157" tau="1.025" sigma="0.500" length="5.000" lcStrategic="0.770" minGap="1.534" color="blue" vClass="passenger" carFollowModel="EIDM" />

		<vType id="vtype_car1158" tau="1.036" sigma="0.500" length="5.000" lcStrategic="0.809" minGap="1.478" color="blue" vClass="passenger" carFollowModel="EIDM" />

		<vType id="vtype_car1159" tau="0.991" sigma="0.500" length="5.000" lcStrategic="0.753" minGap="1.490" color="blue" vClass="passenger" carFollowModel="EIDM" />

		<vType id="vtype_car1160" tau="1.12" sigma="0.500" length="5.000" lcStrategic="0.783" minGap="1.488" color="blue" vClass="passenger" carFollowModel="EIDM" />

		<vType id="vtype_car1161" tau="0.967" sigma="0.500" length="5.000" lcStrategic="0.842" minGap="1.471" color="blue" vClass="passenger" carFollowModel="EIDM" />

		<vType id="vtype_car1162" tau="1.043" sigma="0.500" length="5.000" lcStrategic="0.814" minGap="1.488" color="blue" vClass="passenger" carFollowModel="EIDM" />

		<vType id="vtype_car1163" tau="0.99" sigma="0.500" length="5.000" lcStrategic="0.887" minGap="1.505" color="blue" vClass="passenger" carFollowModel="EIDM" />

		<vType id="vtype_car1164" tau="1.038" sigma="0.500" length="5.000" lcStrategic="0.749" minGap="1.488" color="blue" vClass="passenger" carFollowModel="EIDM" />

		<vType id="vtype_car1165" tau="0.949" sigma="0.500" length="5.000" lcStrategic="0.751" minGap="1.485" color="blue" vClass="passenger" carFollowModel="EIDM" />

		<vType id="vtype_car1166" tau="0.943" sigma="0.500" length="5.000" lcStrategic="0.911" minGap="1.536" color="blue" vClass="passenger" carFollowModel="EIDM" />

		<vType id="vtype_car1167" tau="1.087" sigma="0.500" length="5.000" lcStrategic="0.777" minGap="1.472" color="blue" vClass="passenger" carFollowModel="EIDM" />

		<vType id="vtype_car1168" tau="0.938" sigma="0.500" length="5.000" lcStrategic="0.889" minGap="1.508" color="blue" vClass="passenger" carFollowModel="EIDM" />

		<vType id="vtype_car1169" tau="1.017" sigma="0.500" length="5.000" lcStrategic="0.840" minGap="1.483" color="blue" vClass="passenger" carFollowModel="EIDM" />

		<vType id="vtype_car1170" tau="1.04" sigma="0.500" length="5.000" lcStrategic="0.754" minGap="1.496" color="blue" vClass="passenger" carFollowModel="EIDM" />

		<vType id="vtype_car1171" tau="1.014" sigma="0.500" length="5.000" lcStrategic="0.797" minGap="1.469" color="blue" vClass="passenger" carFollowModel="EIDM" />

		<vType id="vtype_car1172" tau="1.121" sigma="0.500" length="5.000" lcStrategic="0.847" minGap="1.509" color="blue" vClass="passenger" carFollowModel="EIDM" />

		<vType id="vtype_car1173" tau="1.039" sigma="0.500" length="5.000" lcStrategic="0.830" minGap="1.526" color="blue" vClass="passenger" carFollowModel="EIDM" />

		<vType id="vtype_car1174" tau="0.962" sigma="0.500" length="5.000" lcStrategic="0.831" minGap="1.502" color="blue" vClass="passenger" carFollowModel="EIDM" />

		<vType id="vtype_car1175" tau="0.965" sigma="0.500" length="5.000" lcStrategic="0.763" minGap="1.507" color="blue" vClass="passenger" carFollowModel="EIDM" />

		<vType id="vtype_car1176" tau="0.899" sigma="0.500" length="5.000" lcStrategic="0.780" minGap="1.486" color="blue" vClass="passenger" carFollowModel="EIDM" />
