<?xml version="1.0" encoding="UTF-8"?>

<!-- generated on 2022-06-06 03:09:34 by Eclipse SUMO netedit Version v1_13_0+0432-58a1a6dbc81
<configuration xmlns:xsi="http://www.w3.org/2001/XMLSchema-instance" xsi:noNamespaceSchemaLocation="http://sumo.dlr.de/xsd/netconvertConfiguration.xsd">

    <input>
        <sumo-net-file value="C:\Users\kkusic\Desktop\DT-GM\SCENARIO-I\in/motorway_GE_edges_300m_x16.net.xml"/>
    </input>

    <output>
        <output-file value="C:\Users\kkusic\Desktop\DT-GM\SCENARIO-I\in/motorway_GE_edges_300m_x16.net.xml"/>
    </output>

    <processing>
        <geometry.min-radius.fix.railways value="false"/>
        <geometry.max-grade.fix value="false"/>
        <offset.disable-normalization value="true"/>
        <lefthand value="false"/>
    </processing>

    <junctions>
        <no-turnarounds value="true"/>
        <junctions.corner-detail value="5"/>
        <junctions.limit-turn-speed value="5.5"/>
        <rectangular-lane-cut value="false"/>
    </junctions>

    <pedestrian>
        <walkingareas value="false"/>
    </pedestrian>

</configuration>
-->

<net version="1.9" junctionCornerDetail="5" limitTurnSpeed="5.50" xmlns:xsi="http://www.w3.org/2001/XMLSchema-instance" xsi:noNamespaceSchemaLocation="http://sumo.dlr.de/xsd/net_file.xsd">

    <location netOffset="-271730.94,-5113911.27" convBoundary="2652.50,140.19,6550.54,7106.69" origBoundary="6.041343,46.141805,6.170159,46.281435" projParameter="+proj=utm +zone=32 +ellps=WGS84 +datum=WGS84 +units=m +no_defs"/>

    <type id="highway.bridleway" priority="1" numLanes="1" speed="2.78" allow="pedestrian" oneway="1" width="2.00"/>
    <type id="highway.bus_guideway" priority="1" numLanes="1" speed="27.78" allow="bus" oneway="1"/>
    <type id="highway.cycleway" priority="1" numLanes="1" speed="8.33" allow="bicycle" oneway="1" width="1.00"/>
    <type id="highway.footway" priority="1" numLanes="1" speed="2.78" allow="pedestrian" oneway="1" width="2.00"/>
    <type id="highway.ford" priority="1" numLanes="1" speed="2.78" allow="army" oneway="1"/>
    <type id="highway.living_street" priority="2" numLanes="1" speed="2.78" disallow="tram rail_urban rail rail_electric rail_fast ship" oneway="1"/>
    <type id="highway.living_street|railway.tram" priority="17" numLanes="1" speed="13.89" disallow="rail_urban rail rail_electric rail_fast ship" oneway="1"/>
    <type id="highway.motorway" priority="14" numLanes="2" speed="33.33" allow="private emergency authority army vip passenger hov taxi bus coach delivery truck trailer motorcycle evehicle custom1 custom2" oneway="1"/>
    <type id="highway.motorway_link" priority="9" numLanes="2" speed="22.22" allow="private emergency authority army vip passenger hov taxi bus coach delivery truck trailer motorcycle evehicle custom1 custom2" oneway="1"/>
    <type id="highway.path" priority="1" numLanes="1" speed="2.78" allow="pedestrian bicycle" oneway="1" width="2.00"/>
    <type id="highway.pedestrian" priority="1" numLanes="1" speed="2.78" allow="pedestrian" oneway="1" width="2.00"/>
    <type id="highway.primary" priority="12" numLanes="2" speed="27.78" disallow="tram rail_urban rail rail_electric rail_fast ship" oneway="1"/>
    <type id="highway.primary_link" priority="7" numLanes="1" speed="22.22" disallow="tram rail_urban rail rail_electric rail_fast ship" oneway="1"/>
    <type id="highway.raceway" priority="15" numLanes="2" speed="83.33" allow="vip" oneway="1"/>
    <type id="highway.residential" priority="3" numLanes="1" speed="13.89" disallow="tram rail_urban rail rail_electric rail_fast ship" oneway="1"/>
    <type id="highway.residential|railway.tram" priority="17" numLanes="1" speed="13.89" disallow="rail_urban rail rail_electric rail_fast ship" oneway="1"/>
    <type id="highway.secondary" priority="11" numLanes="1" speed="27.78" disallow="tram rail_urban rail rail_electric rail_fast ship" oneway="1"/>
    <type id="highway.secondary_link" priority="6" numLanes="1" speed="22.22" disallow="tram rail_urban rail rail_electric rail_fast ship" oneway="1"/>
    <type id="highway.secondary|railway.tram" priority="17" numLanes="1" speed="27.78" disallow="rail_urban rail rail_electric rail_fast ship" oneway="1"/>
    <type id="highway.service" priority="1" numLanes="1" speed="5.56" allow="pedestrian delivery bicycle" oneway="1"/>
    <type id="highway.service|railway.tram" priority="17" numLanes="1" speed="13.89" allow="pedestrian delivery bicycle tram" oneway="1"/>
    <type id="highway.stairs" priority="1" numLanes="1" speed="1.39" allow="pedestrian" oneway="1" width="2.00"/>
    <type id="highway.step" priority="1" numLanes="1" speed="1.39" allow="pedestrian" oneway="1" width="2.00"/>
    <type id="highway.steps" priority="1" numLanes="1" speed="1.39" allow="pedestrian" oneway="1" width="2.00"/>
    <type id="highway.tertiary" priority="10" numLanes="1" speed="22.22" disallow="tram rail_urban rail rail_electric rail_fast ship" oneway="1"/>
    <type id="highway.tertiary_link" priority="5" numLanes="1" speed="22.22" disallow="tram rail_urban rail rail_electric rail_fast ship" oneway="1"/>
    <type id="highway.tertiary|railway.tram" priority="17" numLanes="1" speed="22.22" disallow="rail_urban rail rail_electric rail_fast ship" oneway="1"/>
    <type id="highway.track" priority="1" numLanes="1" speed="5.56" allow="pedestrian motorcycle moped bicycle" oneway="1"/>
    <type id="highway.trunk" priority="13" numLanes="2" speed="27.78" disallow="pedestrian bicycle tram rail_urban rail rail_electric rail_fast ship" oneway="1"/>
    <type id="highway.trunk_link" priority="8" numLanes="1" speed="22.22" disallow="pedestrian bicycle tram rail_urban rail rail_electric rail_fast ship" oneway="1"/>
    <type id="highway.unclassified" priority="4" numLanes="1" speed="13.89" disallow="tram rail_urban rail rail_electric rail_fast ship" oneway="1"/>
    <type id="highway.unsurfaced" priority="1" numLanes="1" speed="8.33" disallow="tram rail_urban rail rail_electric rail_fast ship" oneway="1"/>
    <type id="railway.highspeed" priority="21" numLanes="1" speed="69.44" allow="rail_fast" oneway="1"/>
    <type id="railway.light_rail" priority="19" numLanes="1" speed="27.78" allow="rail_urban" oneway="1"/>
    <type id="railway.preserved" priority="16" numLanes="1" speed="27.78" allow="rail" oneway="1"/>
    <type id="railway.rail" priority="20" numLanes="1" speed="44.44" allow="rail" oneway="1"/>
    <type id="railway.subway" priority="18" numLanes="1" speed="27.78" allow="rail_urban" oneway="1"/>
    <type id="railway.tram" priority="17" numLanes="1" speed="13.89" allow="tram" oneway="1"/>

    <edge id=":21698954_0" function="internal">
        <lane id=":21698954_0_0" index="0" allow="private emergency authority army vip passenger hov taxi bus coach delivery truck trailer motorcycle evehicle custom1 custom2" speed="30.55" length="16.76" shape="2825.47,5678.29 2825.60,5673.27 2825.05,5669.82 2824.54,5666.36 2824.80,5661.36"/>
        <lane id=":21698954_0_1" index="1" allow="private emergency authority army vip passenger hov taxi bus coach delivery truck trailer motorcycle evehicle custom1 custom2" speed="33.33" length="16.76" shape="2825.47,5678.29 2827.97,5661.81"/>
        <lane id=":21698954_0_2" index="2" allow="private emergency authority army vip passenger hov taxi bus coach delivery truck trailer motorcycle evehicle custom1 custom2" speed="33.33" length="16.76" shape="2828.65,5678.65 2831.14,5662.26"/>
    </edge>
    <edge id=":21698958_0" function="internal">
        <lane id=":21698958_0_0" index="0" allow="private emergency authority army vip passenger hov taxi bus coach delivery truck trailer motorcycle evehicle custom1 custom2" speed="33.33" length="8.14" shape="3087.52,4923.03 3090.20,4915.40"/>
        <lane id=":21698958_0_1" index="1" allow="private emergency authority army vip passenger hov taxi bus coach delivery truck trailer motorcycle evehicle custom1 custom2" speed="33.33" length="8.14" shape="3090.52,4924.15 3093.23,4916.42"/>
    </edge>
    <edge id=":21698958_2" function="internal">
        <lane id=":21698958_2_0" index="0" allow="private emergency authority army vip passenger hov taxi bus coach delivery truck trailer motorcycle evehicle custom1 custom2" speed="27.77" length="7.98" shape="3084.46,4921.88 3087.17,4914.38"/>
    </edge>
    <edge id=":21698959_0" function="internal">
        <lane id=":21698959_0_0" index="0" allow="private emergency authority army vip passenger hov taxi bus coach delivery truck trailer motorcycle evehicle custom1 custom2" speed="33.33" length="16.44" shape="3190.14,4531.17 3191.61,4526.49 3193.34,4523.51 3195.06,4520.53 3196.51,4515.84"/>
        <lane id=":21698959_0_1" index="1" allow="private emergency authority army vip passenger hov taxi bus coach delivery truck trailer motorcycle evehicle custom1 custom2" speed="33.33" length="16.44" shape="3193.27,4531.82 3196.51,4515.84"/>
        <lane id=":21698959_0_2" index="2" allow="private emergency authority army vip passenger hov taxi bus coach delivery truck trailer motorcycle evehicle custom1 custom2" speed="33.33" length="16.44" shape="3196.40,4532.47 3199.65,4516.48"/>
    </edge>
    <edge id=":21698970_0" function="internal">
        <lane id=":21698970_0_0" index="0" allow="private emergency authority army vip passenger hov taxi bus coach delivery truck trailer motorcycle evehicle custom1 custom2" speed="30.55" length="12.59" shape="3846.42,3214.73 3847.91,3211.16 3847.59,3208.15 3847.26,3205.14 3848.70,3201.54"/>
        <lane id=":21698970_0_1" index="1" allow="private emergency authority army vip passenger hov taxi bus coach delivery truck trailer motorcycle evehicle custom1 custom2" speed="30.55" length="12.59" shape="3846.42,3214.73 3848.22,3211.57 3848.89,3209.09 3849.54,3206.59 3851.30,3203.41"/>
        <lane id=":21698970_0_2" index="2" allow="private emergency authority army vip passenger hov taxi bus coach delivery truck trailer motorcycle evehicle custom1 custom2" speed="33.33" length="12.59" shape="3846.42,3214.73 3853.90,3205.27"/>
        <lane id=":21698970_0_3" index="3" allow="private emergency authority army vip passenger hov taxi bus coach delivery truck trailer motorcycle evehicle custom1 custom2" speed="33.33" length="12.59" shape="3849.00,3216.63 3856.50,3207.14"/>
    </edge>
    <edge id=":2305811896_0" function="internal">
        <lane id=":2305811896_0_0" index="0" allow="private emergency authority army vip passenger hov taxi bus coach delivery truck trailer motorcycle evehicle custom1 custom2" speed="25.00" length="7.78" shape="4140.77,1195.34 4137.00,1188.40"/>
        <lane id=":2305811896_0_1" index="1" allow="private emergency authority army vip passenger hov taxi bus coach delivery truck trailer motorcycle evehicle custom1 custom2" speed="25.00" length="7.78" shape="4143.52,1193.71 4139.81,1186.87"/>
        <lane id=":2305811896_0_2" index="2" allow="private emergency authority army vip passenger hov taxi bus coach delivery truck trailer motorcycle evehicle custom1 custom2" speed="25.00" length="7.78" shape="4146.27,1192.08 4142.62,1185.34"/>
    </edge>
    <edge id=":2308906209_0" function="internal">
        <lane id=":2308906209_0_0" index="0" allow="private emergency authority army vip passenger hov taxi bus coach delivery truck trailer motorcycle evehicle custom1 custom2" speed="33.33" length="0.25" shape="4499.02,1986.26 4499.03,1986.56"/>
        <lane id=":2308906209_0_1" index="1" allow="private emergency authority army vip passenger hov taxi bus coach delivery truck trailer motorcycle evehicle custom1 custom2" speed="33.33" length="0.25" shape="4495.83,1986.45 4495.83,1986.65"/>
    </edge>
    <edge id=":27317294_0" function="internal">
        <lane id=":27317294_0_0" index="0" allow="private emergency authority army vip passenger hov taxi bus coach delivery truck trailer motorcycle evehicle custom1 custom2" speed="11.11" length="10.63" shape="3978.91,799.42 3979.10,788.79"/>
    </edge>
    <edge id=":27317294_1" function="internal">
        <lane id=":27317294_1_0" index="0" allow="private emergency authority army vip passenger hov taxi bus coach delivery truck trailer motorcycle evehicle custom1 custom2" speed="11.11" length="10.64" shape="3972.66,799.58 3972.70,788.89"/>
        <lane id=":27317294_1_1" index="1" allow="private emergency authority army vip passenger hov taxi bus coach delivery truck trailer motorcycle evehicle custom1 custom2" speed="11.11" length="10.64" shape="3975.86,799.42 3975.90,788.84"/>
    </edge>
    <edge id=":275519325_0" function="internal">
        <lane id=":275519325_0_0" index="0" allow="private emergency authority army vip passenger hov taxi bus coach delivery truck trailer motorcycle evehicle custom1 custom2" speed="27.78" length="7.77" shape="4452.63,1713.57 4455.12,1720.90"/>
        <lane id=":275519325_0_1" index="1" allow="private emergency authority army vip passenger hov taxi bus coach delivery truck trailer motorcycle evehicle custom1 custom2" speed="27.78" length="7.77" shape="4449.62,1714.66 4452.14,1722.04"/>
    </edge>
    <edge id=":275519325_2" function="internal">
        <lane id=":275519325_2_0" index="0" allow="private emergency authority army vip passenger hov taxi bus coach delivery truck trailer motorcycle evehicle custom1 custom2" speed="33.33" length="7.84" shape="4446.62,1715.74 4449.30,1723.04"/>
        <lane id=":275519325_2_1" index="1" allow="private emergency authority army vip passenger hov taxi bus coach delivery truck trailer motorcycle evehicle custom1 custom2" speed="33.33" length="7.84" shape="4443.61,1716.83 4446.33,1724.25"/>
    </edge>
    <edge id=":278425930_0" function="internal">
        <lane id=":278425930_0_0" index="0" allow="private emergency authority army vip passenger hov taxi bus coach delivery truck trailer motorcycle evehicle custom1 custom2" speed="22.22" length="0.24" shape="4443.97,2152.05 4444.05,2151.82"/>
    </edge>
    <edge id=":278425947_0" function="internal">
        <lane id=":278425947_0_0" index="0" allow="private emergency authority army vip passenger hov taxi bus coach delivery truck trailer motorcycle evehicle custom1 custom2" speed="22.22" length="12.10" shape="4457.88,2391.63 4448.95,2383.46"/>
    </edge>
    <edge id=":278425947_1" function="internal">
        <lane id=":278425947_1_0" index="0" allow="private emergency authority army vip passenger hov taxi bus coach delivery truck trailer motorcycle evehicle custom1 custom2" speed="22.22" length="12.32" shape="4460.00,2389.23 4451.09,2380.72"/>
    </edge>
    <edge id=":278426907_0" function="internal">
        <lane id=":278426907_0_0" index="0" allow="private emergency authority army vip passenger hov taxi bus coach delivery truck trailer motorcycle evehicle custom1 custom2" speed="25.00" length="10.73" shape="4508.02,1944.56 4509.78,1955.15"/>
    </edge>
    <edge id=":278426907_1" function="internal">
        <lane id=":278426907_1_0" index="0" allow="private emergency authority army vip passenger hov taxi bus coach delivery truck trailer motorcycle evehicle custom1 custom2" speed="25.00" length="10.80" shape="4504.84,1945.00 4506.51,1955.67"/>
    </edge>
    <edge id=":278427068_0" function="internal">
        <lane id=":278427068_0_0" index="0" allow="private emergency authority army vip passenger hov taxi bus coach delivery truck trailer motorcycle evehicle custom1 custom2" speed="22.22" length="0.25" shape="4505.60,2243.35 4505.61,2243.43 4505.61,2243.48 4505.62,2243.53 4505.64,2243.60"/>
    </edge>
    <edge id=":278427076_0" function="internal">
        <lane id=":278427076_0_0" index="0" allow="private emergency authority army vip passenger hov taxi bus coach delivery truck trailer motorcycle evehicle custom1 custom2" speed="30.55" length="7.84" shape="4707.33,2317.22 4714.75,2314.91"/>
        <lane id=":278427076_0_1" index="1" allow="private emergency authority army vip passenger hov taxi bus coach delivery truck trailer motorcycle evehicle custom1 custom2" speed="30.55" length="7.84" shape="4708.20,2320.30 4715.76,2317.95"/>
    </edge>
    <edge id=":278427076_2" function="internal">
        <lane id=":278427076_2_0" index="0" allow="private emergency authority army vip passenger hov taxi bus coach delivery truck trailer motorcycle evehicle custom1 custom2" speed="30.55" length="8.07" shape="4709.03,2323.25 4716.77,2320.99"/>
    </edge>
    <edge id=":282183364_0" function="internal">
        <lane id=":282183364_0_0" index="0" allow="private emergency authority army vip passenger hov taxi bus coach delivery truck trailer motorcycle evehicle custom1 custom2" speed="33.33" length="9.99" shape="3939.04,3117.91 3936.89,3120.02 3934.89,3120.92 3932.88,3121.83 3930.72,3123.93"/>
        <lane id=":282183364_0_1" index="1" allow="private emergency authority army vip passenger hov taxi bus coach delivery truck trailer motorcycle evehicle custom1 custom2" speed="33.33" length="9.99" shape="3936.46,3116.02 3930.72,3123.93"/>
        <lane id=":282183364_0_2" index="2" allow="private emergency authority army vip passenger hov taxi bus coach delivery truck trailer motorcycle evehicle custom1 custom2" speed="33.33" length="9.99" shape="3933.88,3114.13 3928.14,3122.03"/>
    </edge>
    <edge id=":286943753_0" function="internal">
        <lane id=":286943753_0_0" index="0" allow="private emergency authority army vip passenger hov taxi bus coach delivery truck trailer motorcycle evehicle custom1 custom2" speed="33.33" length="0.23" shape="6003.39,2302.56 6003.55,2302.62"/>
        <lane id=":286943753_0_1" index="1" allow="private emergency authority army vip passenger hov taxi bus coach delivery truck trailer motorcycle evehicle custom1 custom2" speed="33.33" length="0.23" shape="6002.11,2305.49 6002.39,2305.60"/>
    </edge>
    <edge id=":287311895_0" function="internal">
        <lane id=":287311895_0_0" index="0" allow="private emergency authority army vip passenger hov taxi bus coach delivery truck trailer motorcycle evehicle custom1 custom2" speed="33.33" length="10.55" shape="4886.94,2257.57 4890.07,2257.04 4892.34,2257.40 4894.61,2257.76 4897.73,2257.21"/>
        <lane id=":287311895_0_1" index="1" allow="private emergency authority army vip passenger hov taxi bus coach delivery truck trailer motorcycle evehicle custom1 custom2" speed="33.33" length="10.55" shape="4887.95,2260.61 4897.73,2257.21"/>
        <lane id=":287311895_0_2" index="2" allow="private emergency authority army vip passenger hov taxi bus coach delivery truck trailer motorcycle evehicle custom1 custom2" speed="33.33" length="10.55" shape="4888.96,2263.65 4898.75,2260.25"/>
    </edge>
    <edge id=":287312204_0" function="internal">
        <lane id=":287312204_0_0" index="0" allow="private emergency authority army vip passenger hov taxi bus coach delivery truck trailer motorcycle evehicle custom1 custom2" speed="27.77" length="14.18" shape="4794.68,2305.61 4790.84,2307.35 4788.46,2309.10 4786.09,2310.85 4782.25,2312.59"/>
        <lane id=":287312204_0_1" index="1" allow="private emergency authority army vip passenger hov taxi bus coach delivery truck trailer motorcycle evehicle custom1 custom2" speed="27.77" length="14.18" shape="4794.68,2305.61 4781.21,2309.57"/>
    </edge>
    <edge id=":287312204_2" function="internal">
        <lane id=":287312204_2_0" index="0" allow="private emergency authority army vip passenger hov taxi bus coach delivery truck trailer motorcycle evehicle custom1 custom2" speed="30.55" length="14.03" shape="4793.64,2302.59 4780.23,2306.70"/>
    </edge>
    <edge id=":287312924_0" function="internal">
        <lane id=":287312924_0_0" index="0" allow="private emergency authority army vip passenger hov taxi bus coach delivery truck trailer motorcycle evehicle custom1 custom2" speed="33.33" length="0.30" shape="6241.41,2411.99 6241.12,2411.88"/>
        <lane id=":287312924_0_1" index="1" allow="private emergency authority army vip passenger hov taxi bus coach delivery truck trailer motorcycle evehicle custom1 custom2" speed="33.33" length="0.30" shape="6242.59,2409.02 6242.33,2408.91"/>
    </edge>
    <edge id=":315135605_0" function="internal">
        <lane id=":315135605_0_0" index="0" allow="private emergency authority army vip passenger hov taxi bus coach delivery truck trailer motorcycle evehicle custom1 custom2" speed="33.33" length="13.15" shape="2910.45,5386.64 2908.76,5390.18 2907.01,5392.33 2905.28,5394.49 2903.67,5398.06"/>
        <lane id=":315135605_0_1" index="1" allow="private emergency authority army vip passenger hov taxi bus coach delivery truck trailer motorcycle evehicle custom1 custom2" speed="33.33" length="13.15" shape="2907.42,5385.60 2903.67,5398.06"/>
        <lane id=":315135605_0_2" index="2" allow="private emergency authority army vip passenger hov taxi bus coach delivery truck trailer motorcycle evehicle custom1 custom2" speed="33.33" length="13.15" shape="2904.39,5384.56 2900.63,5397.08"/>
    </edge>
    <edge id=":334720316_0" function="internal">
        <lane id=":334720316_0_0" index="0" allow="private emergency authority army vip passenger hov taxi bus coach delivery truck trailer motorcycle evehicle custom1 custom2" speed="16.66" length="5.84" shape="3966.65,466.33 3967.81,465.05 3968.51,464.10 3969.11,463.07 3969.95,461.55"/>
    </edge>
    <edge id=":334720316_1" function="internal">
        <lane id=":334720316_1_0" index="0" allow="private emergency authority army vip passenger hov taxi bus coach delivery truck trailer motorcycle evehicle custom1 custom2" speed="16.66" length="12.00" shape="3967.90,474.09 3972.74,463.11"/>
    </edge>
    <edge id=":334720316_2" function="internal">
        <lane id=":334720316_2_0" index="0" allow="private emergency authority army vip passenger hov taxi bus coach delivery truck trailer motorcycle evehicle custom1 custom2" speed="16.66" length="11.62" shape="3971.00,475.34 3972.00,472.39 3972.82,470.13 3973.86,467.81 3975.53,464.67"/>
    </edge>
    <edge id=":36738189_0" function="internal">
        <lane id=":36738189_0_0" index="0" allow="private emergency authority army vip passenger hov taxi bus coach delivery truck trailer motorcycle evehicle custom1 custom2" speed="27.78" length="3.17" shape="4170.56,2753.58 4172.33,2751.03"/>
        <lane id=":36738189_0_1" index="1" allow="private emergency authority army vip passenger hov taxi bus coach delivery truck trailer motorcycle evehicle custom1 custom2" speed="27.78" length="3.17" shape="4173.16,2755.45 4175.01,2752.79"/>
    </edge>
    <edge id=":36738189_2" function="internal">
        <lane id=":36738189_2_0" index="0" allow="private emergency authority army vip passenger hov taxi bus coach delivery truck trailer motorcycle evehicle custom1 custom2" speed="33.33" length="3.43" shape="4175.76,2757.31 4177.77,2754.61"/>
        <lane id=":36738189_2_1" index="1" allow="private emergency authority army vip passenger hov taxi bus coach delivery truck trailer motorcycle evehicle custom1 custom2" speed="33.33" length="3.43" shape="4178.36,2759.18 4180.44,2756.39"/>
    </edge>
    <edge id=":36738219_0" function="internal">
        <lane id=":36738219_0_0" index="0" allow="private emergency authority army vip passenger hov taxi bus coach delivery truck trailer motorcycle evehicle custom1 custom2" speed="27.78" length="9.45" shape="4282.03,2574.46 4283.44,2572.04 4284.42,2570.38 4285.32,2568.69 4286.51,2566.15"/>
    </edge>
    <edge id=":36738219_1" function="internal">
        <lane id=":36738219_1_0" index="0" allow="private emergency authority army vip passenger hov taxi bus coach delivery truck trailer motorcycle evehicle custom1 custom2" speed="27.78" length="9.74" shape="4284.81,2576.04 4289.51,2567.51"/>
    </edge>
    <edge id=":410214096_0" function="internal">
        <lane id=":410214096_0_0" index="0" allow="private emergency authority army vip passenger hov taxi bus coach delivery truck trailer motorcycle evehicle custom1 custom2" speed="16.66" length="9.28" shape="4020.78,801.14 4022.88,810.18"/>
    </edge>
    <edge id=":410214096_1" function="internal">
        <lane id=":410214096_1_0" index="0" allow="private emergency authority army vip passenger hov taxi bus coach delivery truck trailer motorcycle evehicle custom1 custom2" speed="11.11" length="9.40" shape="4017.68,801.96 4019.81,811.12"/>
    </edge>
    <edge id=":410214099_0" function="internal">
        <lane id=":410214099_0_0" index="0" allow="private emergency authority army vip passenger hov taxi bus coach delivery truck trailer motorcycle evehicle custom1 custom2" speed="16.66" length="7.94" shape="4008.80,863.86 4011.01,871.48"/>
    </edge>
    <edge id=":410214099_1" function="internal">
        <lane id=":410214099_1_0" index="0" allow="private emergency authority army vip passenger hov taxi bus coach delivery truck trailer motorcycle evehicle custom1 custom2" speed="16.66" length="7.86" shape="4011.75,863.00 4014.05,870.52"/>
    </edge>
    <edge id=":410214112_0" function="internal">
        <lane id=":410214112_0_0" index="0" allow="private emergency authority army vip passenger hov taxi bus coach delivery truck trailer motorcycle evehicle custom1 custom2" speed="16.66" length="8.01" shape="3997.42,467.43 3995.58,475.22"/>
    </edge>
    <edge id=":410214112_1" function="internal">
        <lane id=":410214112_1_0" index="0" allow="private emergency authority army vip passenger hov taxi bus coach delivery truck trailer motorcycle evehicle custom1 custom2" speed="16.66" length="8.16" shape="3994.35,466.52 3992.57,474.49"/>
    </edge>
    <edge id=":410214112_2" function="internal">
        <lane id=":410214112_2_0" index="0" allow="private emergency authority army vip passenger hov taxi bus coach delivery truck trailer motorcycle evehicle custom1 custom2" speed="16.66" length="8.32" shape="3991.28,465.61 3989.62,473.77"/>
    </edge>
    <edge id=":4147717192_0" function="internal">
        <lane id=":4147717192_0_0" index="0" allow="private emergency authority army vip passenger hov taxi bus coach delivery truck trailer motorcycle evehicle custom1 custom2" speed="16.66" length="22.90" shape="4000.95,948.82 3985.43,931.98"/>
    </edge>
    <edge id=":4147717192_1" function="internal">
        <lane id=":4147717192_1_0" index="0" allow="private emergency authority army vip passenger hov taxi bus coach delivery truck trailer motorcycle evehicle custom1 custom2" speed="16.66" length="23.87" shape="4000.95,948.82 3996.32,942.84 3993.15,938.32 3990.86,933.80 3988.83,927.82"/>
        <lane id=":4147717192_1_1" index="1" allow="private emergency authority army vip passenger hov taxi bus coach delivery truck trailer motorcycle evehicle custom1 custom2" speed="16.66" length="23.87" shape="4003.48,946.86 3999.09,941.25 3996.09,937.08 3993.90,932.81 3991.91,926.92"/>
    </edge>
    <edge id=":4147717192_3" function="internal">
        <lane id=":4147717192_3_0" index="0" allow="private emergency authority army vip passenger hov taxi bus coach delivery truck trailer motorcycle evehicle custom1 custom2" speed="16.66" length="21.98" shape="4006.01,944.90 4001.65,938.98 3998.49,934.03 3996.31,929.80 3994.94,926.05"/>
    </edge>
    <edge id=":497730_0" function="internal">
        <lane id=":497730_0_0" index="0" allow="private emergency authority army vip passenger hov taxi bus coach delivery truck trailer motorcycle evehicle custom1 custom2" speed="11.11" length="8.06" shape="3978.00,572.10 3977.63,574.45 3977.57,576.09 3977.63,577.73 3977.63,580.13"/>
    </edge>
    <edge id=":497730_1" function="internal">
        <lane id=":497730_1_0" index="0" allow="private emergency authority army vip passenger hov taxi bus coach delivery truck trailer motorcycle evehicle custom1 custom2" speed="11.11" length="8.49" shape="3975.00,571.57 3974.60,574.05 3974.48,575.77 3974.47,577.50 3974.43,580.02"/>
    </edge>
    <edge id=":497730_2" function="internal">
        <lane id=":497730_2_0" index="0" allow="private emergency authority army vip passenger hov taxi bus coach delivery truck trailer motorcycle evehicle custom1 custom2" speed="11.11" length="8.93" shape="3971.98,571.03 3971.56,573.64 3971.37,575.45 3971.30,577.26 3971.23,579.91"/>
    </edge>
    <edge id=":497734_0" function="internal">
        <lane id=":497734_0_0" index="0" allow="private emergency authority army vip passenger hov taxi bus coach delivery truck trailer motorcycle evehicle custom1 custom2" speed="25.00" length="9.55" shape="4048.88,965.47 4049.68,968.17 4050.43,969.96 4051.31,971.70 4052.55,974.25"/>
    </edge>
    <edge id=":497734_1" function="internal">
        <lane id=":497734_1_0" index="0" allow="private emergency authority army vip passenger hov taxi bus coach delivery truck trailer motorcycle evehicle custom1 custom2" speed="25.00" length="10.93" shape="4045.17,965.63 4049.63,975.57"/>
        <lane id=":497734_1_1" index="1" allow="private emergency authority army vip passenger hov taxi bus coach delivery truck trailer motorcycle evehicle custom1 custom2" speed="25.00" length="10.93" shape="4042.23,966.87 4046.71,976.89"/>
    </edge>
    <edge id=":502973_0" function="internal">
        <lane id=":502973_0_0" index="0" allow="private emergency authority army vip passenger hov taxi bus coach delivery truck trailer motorcycle evehicle custom1 custom2" speed="25.00" length="8.15" shape="3151.00,4800.59 3148.90,4808.46"/>
    </edge>
    <edge id=":502973_1" function="internal">
        <lane id=":502973_1_0" index="0" allow="private emergency authority army vip passenger hov taxi bus coach delivery truck trailer motorcycle evehicle custom1 custom2" speed="33.33" length="8.06" shape="3147.91,4799.76 3145.78,4807.56"/>